Raman shift (cm-1)	intensity
320	4.74003
324	-5.88579
328	6.29084
332	40.0679
336	101.878
340	121.937
344	105.929
348	133.482
352	122.974
356	127.726
360	110.142
364	64.7223
368	25.4783
372	23.8941
376	6.64146
380	-9.4847
384	5.08223
388	-6.94931
392	14.1427
396	-18.1386
400	28.4641
404	8.24356
408	27.3811
412	80.1741
416	119.944
420	118.306
424	153.394
428	139.598
432	88.5787
436	60.7883
440	0.090341
444	5.45712
448	31.6475
452	21.4409
456	36.5683
460	13.9782
464	21.327
468	-13.6964
472	3.32996
476	-3.39955
480	3.29521
484	14.5315
488	20.8522
492	10.0314
496	-9.43486
500	5.00866
504	45.1847
508	129.476
512	188.391
516	255.37
520	289.686
524	198.317
528	137.548
532	56.3017
536	35.5561
540	48.1181
544	36.7431
548	29.2217
552	-1.07568
556	37.7037
560	-8.34733
564	13.8806
568	0.226943
572	2.23708
576	4.23941
580	-1.84491
584	41.2644
588	-3.29311
592	6.47298
596	14.2424
600	5.74763
604	9.6045
608	-0.539932
612	37.8682
616	16.4082
620	53.9632
624	-1.31953
628	6.61845
632	54.3898
636	4.14599
640	56.8722
644	2.59459
648	28.6712
652	20.7552
656	11.6243
660	29.9323
664	3.26286
668	32.4476
672	3.64621
676	-7.09294
680	14.8537
684	4.20048
688	57.0127
692	29.3276
696	14.1144
700	14.5345
704	4.71373
708	44.9834
712	44.8994
716	59.9848
720	75.3025
724	50.5533
728	36.4955
732	23.3252
736	-0.402649
740	27.6308
744	-11.7846
748	25.3498
752	-2.58337
756	11.6491
760	39.7535
764	0.60387
768	43.6625
772	48.3764
776	46.5601
780	34.7207
784	38.9542
788	64.0058
792	75.2015
796	53.4714
800	39.4535
804	-4.07757
808	14.9409
812	46.2861
816	9.4921
820	-1.23345
824	14.8238
828	5.26733
832	23.0867
836	22.602
840	18.112
844	54.6615
848	-8.51035
852	45.9648
856	14.9522
860	8.59836
864	23.368
868	21.062
872	38.1572
876	14.614
880	-1.72006
884	15.9177
888	22.8794
892	1.15968
896	43.6117
900	4.48098
904	38.7363
908	25.253
912	-3.64744
916	63.703
920	25.8566
924	35.1032
928	18.0769
932	12.2478
936	2.08602
940	52.2479
944	5.71806
948	55.2134
952	54.2563
956	36.3067
960	30.9479
964	19.0334
968	-0.994641
972	-2.90231
976	54.8513
980	3.71952
984	39.0947
988	31.4317
992	-2.91101
996	65.268
1000	72.1303
1004	36.2724
1008	31.0068
1012	31.548
1016	3.7609
1020	31.8443
1024	13.7034
1028	28.5758
1032	5.51128
1036	-5.6097
1040	-9.23158
1044	17.6415
1048	1.05029
1052	-18.5364
1056	-11.0059
1060	1.59238
1064	134.379
1068	427.934
1072	695.628
1076	849.842
1080	721.011
1084	415.065
1088	118.558
1092	29.2288
1096	-37.7103
1100	-11.3027
1104	8.85674
1108	14.292
1112	16.2356
1116	21.7744
1120	17.5247
1124	-9.0806
1128	36.3959
1132	41.8153
1136	60.5196
1140	81.3753
1144	38.5166
1148	24.6291
1152	15.0889
1156	1.39788
1160	10.9808
1164	6.89135
1168	33.8996
1172	54.4696
1176	114.574
1180	121.896
1184	92.1731
1188	15.0027
1192	-3.78862
1196	18.7984
1200	8.34316
1204	9.11822
1208	38.2078
1212	3.36813
1216	28.3311
1220	14.2397
1224	8.49272
1228	-0.565787
1232	6.22796
1236	11.378
1240	5.75415
1244	9.17549
1248	56.856
1252	30.1383
1256	87.0785
1260	61.3988
1264	76.3726
1268	2.08054
1272	37.3954
1276	41.8098
1280	21.195
1284	22.4075
1288	17.8967
1292	16.9817
1296	0.887753
1300	-1.37734
1304	26.4654
1308	27.8495
1312	-8.92569
1316	8.49145
1320	39.5947
1324	-6.61666
1328	24.8783
1332	17.0682
1336	17.5256
1340	9.29736
1344	-2.3582
1348	31.2819
1352	42.3834
1356	13.1328
1360	7.29602
1364	45.5849
1368	45.728
1372	42.1177
1376	2.3612
1380	50.8362
1384	47.9975
1388	3.2152
1392	17.0984
1396	51.4808
1400	16.1091
1404	1.96847
1408	5.19003
1412	23.7133
1416	18.7609
1420	40.4037
1424	5.88858
1428	20.2638
1432	26.8937
1436	18.1166
1440	2.13906
1444	1.53219
1448	28.8463
1452	11.4391
1456	26.5035
1460	-2.32718
1464	12.6038
1468	20.7268
1472	37.6226
1476	51.3786
1480	6.82664
1484	16.0046
1488	28.9232
1492	25.9199
1496	1.044
1500	2.90675
1504	24.7162
1508	12.7784
1512	12.5192
1516	0.020496
1520	18.333
1524	-2.02624
1528	30.3321
1532	7.55837
1536	1.01668
1540	19.2781
1544	-4.29969
1548	33.9243
1552	-12.1377
1556	19.4714
1560	-37.7231
1564	40.6286
1568	199.387
1572	349.109
1576	624.752
1580	652.571
1584	449.29
1588	241.868
1592	21.7428
1596	-6.28363
1600	-17.8519
1604	17.9901
1608	-0.0812571
1612	-5.61243
1616	34.3384
1620	15.757
1624	0.0946552
1628	40.5244
1632	31.9338
1636	9.01737
1640	-7.58678
1644	-4.70486
1648	7.01253
