Raman shift (cm-1)	intensity
320	-11.8862
324	29.6278
328	72.707
332	-17.7592
336	27.6078
340	109.795
344	111.28
348	22.2627
352	66.7915
356	-8.93435
360	-2.23823
364	-11.1984
368	0.474364
372	54.9674
376	70.3831
380	22.1245
384	-5.1656
388	9.65798
392	-55.1945
396	-11.1317
400	-54.0752
404	-8.33336
408	24.4072
412	155.615
416	457.636
420	592.524
424	687.962
428	512.505
432	327.915
436	87.0048
440	1.5655
444	-26.3673
448	199.641
452	267.463
456	212.84
460	134.234
464	-0.951964
468	-18.4645
472	-13.5755
476	1.84849
480	-40.6934
484	91.3521
488	152.1
492	43.0746
496	-17.4147
500	-62.8589
504	-5.39523
508	13.8879
512	53.1495
516	173.055
520	175.77
524	108.835
528	41.9564
532	105.031
536	44.1155
540	130.28
544	254.671
548	282.867
552	216.79
556	130.044
560	38.3126
564	-1.93206
568	-26.4926
572	-12.6387
576	3.20799
580	-9.27864
584	15.0057
588	-26.6276
592	13.6139
596	25.7339
600	13.0476
604	-3.31532
608	-11.3819
612	-8.68279
616	5.56783
620	57.2413
624	80.7913
628	-6.64556
632	19.3569
636	-7.63502
640	5.15288
644	30.5064
648	22.7387
652	-10.0012
656	11.9887
660	-14.4579
664	67.663
668	69.5754
672	14.7609
676	6.01227
680	6.6413
684	-1.1385
688	35.253
692	46.7509
696	31.2751
700	3.86582
704	70.6284
708	2.74485
712	43.5738
716	-18.3444
720	-7.36528
724	29.9555
728	30.7499
732	1.39859
736	-3.68816
740	-24.1665
744	36.0114
748	16.8222
752	7.92634
756	-5.04469
760	-2.14015
764	-9.44262
768	54.4292
772	81.0567
776	4.59308
780	33.1958
784	21.4401
788	67.777
792	49.9018
796	3.44804
800	1.20972
804	33.4483
808	27.2557
812	11.8495
816	4.16485
820	50.5035
824	-12.6398
828	14.1058
832	60.7721
836	-25.6207
840	55.2437
844	47.2394
848	-10.5173
852	0.819577
856	-6.3556
860	-3.63633
864	2.99982
868	30.3988
872	-14.8015
876	43.4056
880	-4.78002
884	74.3682
888	-5.17469
892	12.981
896	30.7611
900	-15.9371
904	71.0806
908	-2.45408
912	17.8523
916	46.6223
920	8.1549
924	78.6592
928	72.1785
932	54.4793
936	-1.97524
940	2.54593
944	0.940939
948	1.59389
952	19.7221
956	-1.14476
960	54.8969
964	-34.7256
968	17.592
972	47.9706
976	-7.46986
980	9.11214
984	40.2054
988	51.4012
992	2.64204
996	-3.47526
1000	0.0812542
1004	53.1554
1008	23.2996
1012	26.9993
1016	-15.9547
1020	26.2177
1024	-3.51067
1028	12.8242
1032	39.4919
1036	12.6159
1040	30.0464
1044	3.334
1048	16.3081
1052	-31.736
1056	2.8878
1060	-13.8782
1064	49.0789
1068	50.7517
1072	163.644
1076	98.3723
1080	55.4158
1084	39.9625
1088	17.4526
1092	-26.5911
1096	41.0269
1100	-21.9526
1104	-10.6697
1108	37.73
1112	50.4421
1116	14.7021
1120	-10.9964
1124	16.4835
1128	53.8586
1132	5.97297
1136	19.7644
1140	16.1477
1144	81.8904
1148	30.186
1152	-22.7472
1156	18.1985
1160	75.056
1164	28.6593
1168	-18.9269
1172	4.58104
1176	30.6098
1180	-9.82458
1184	-4.23965
1188	1.45788
1192	-4.75226
1196	19.16
1200	7.05357
1204	75.159
1208	113.033
1212	7.68063
1216	-9.76849
1220	3.12305
1224	1.85059
1228	-0.379753
1232	-49.8191
1236	43.5319
1240	-4.96912
1244	41.0536
1248	69.6022
1252	134.693
1256	214.369
1260	174.923
1264	129.768
1268	35.266
1272	20.1664
1276	-7.6026
1280	15.2936
1284	1.65944
1288	16.6409
1292	22.9675
1296	-3.37091
1300	-9.52468
1304	5.10757
1308	7.5097
1312	-25.9577
1316	38.3302
1320	36.8774
1324	5.17823
1328	2.91174
1332	15.2059
1336	17.6387
1340	-9.98263
1344	32.7374
1348	23.9187
1352	36.0223
1356	17.1443
1360	5.36121
1364	54.4892
1368	3.32451
1372	30.1357
1376	-1.65794
1380	-6.39121
1384	-0.460225
1388	31.6108
1392	26.922
1396	38.8645
1400	-17.9486
1404	14.0929
1408	37.2136
1412	17.9595
1416	-21.4727
1420	4.10659
1424	10.4931
1428	42.0937
1432	28.6713
1436	-27.7242
1440	56.7659
1444	-0.230422
1448	60.054
1452	-8.04118
1456	4.47393
1460	23.8943
1464	33.7201
1468	-9.47808
1472	6.36547
1476	31.354
1480	3.80872
1484	34.5441
1488	19.3974
1492	7.41153
1496	1.42518
1500	22.5701
1504	-6.43221
1508	11.9138
1512	5.06294
1516	31.2613
1520	0.991583
1524	22.7749
1528	-18.0594
1532	25.3866
1536	33.2327
1540	-1.69095
1544	1.8922
1548	10.7274
1552	40.3418
1556	-1.94157
1560	-9.31482
1564	14.2881
1568	22.5648
1572	4.63325
1576	39.6937
1580	57.6074
1584	51.5216
1588	-3.05748
1592	47.3761
1596	-5.7087
1600	26.96
1604	-1.64795
1608	36.0363
1612	6.23764
1616	23.9152
1620	28.2536
1624	8.29733
1628	1.72974
1632	37.8194
1636	-3.92329
1640	34.0957
1644	10.6389
1648	-20.4115
