Raman shift (cm-1)	intensity
320	-40.3941
324	-5.20298
328	25.3885
332	21.7848
336	60.7209
340	85.4461
344	111.811
348	26.0572
352	28.96
356	22.9998
360	49.6089
364	-11.9841
368	2.03625
372	81.1586
376	64.0402
380	-16.8233
384	1.91542
388	-18.9376
392	-47.1852
396	-42.9412
400	-53.1568
404	11.8764
408	127.443
412	496.583
416	715.671
420	902.665
424	825.04
428	610.415
432	281.959
436	1.06081
440	-35.4652
444	51.4767
448	252.392
452	283.599
456	249.249
460	78.0405
464	-15.3723
468	-23.3088
472	-34.4135
476	-7.73634
480	-22.4592
484	74.1215
488	25.5031
492	43.6519
496	-13.8179
500	-51.2976
504	-42.8542
508	20.7102
512	76.1833
516	233.978
520	293.187
524	278.75
528	177.354
532	98.847
536	224.986
540	314.899
544	437.816
548	430.019
552	326.612
556	243.129
560	157.626
564	59.9674
568	-8.85891
572	-17.3646
576	22.7351
580	-22.6561
584	13.401
588	20.3096
592	13.7564
596	-0.3286
600	14.448
604	6.31565
608	-8.96068
612	-43.3933
616	44.3623
620	48.6866
624	59.2926
628	-12.2509
632	63.4165
636	7.43839
640	15.1851
644	23.0324
648	19.8023
652	-14.9112
656	15.9098
660	-12.4568
664	19.5654
668	8.78087
672	35.2252
676	37.7762
680	-11.1771
684	56.5973
688	72.9659
692	-1.19461
696	53.4631
700	98.9137
704	22.8794
708	-10.0656
712	46.6478
716	5.40729
720	17.1826
724	5.48283
728	-2.03144
732	15.769
736	-15.9933
740	54.9234
744	37.572
748	24.487
752	-11.9337
756	-9.78043
760	61.8546
764	-9.41826
768	34.277
772	72.0814
776	19.5369
780	45.6005
784	8.0641
788	59.3243
792	7.54932
796	10.2873
800	53.5514
804	-0.721561
808	1.78867
812	52.3825
816	84.5194
820	-1.70601
824	-16.9007
828	63.8824
832	1.97587
836	18.0956
840	0.865595
844	22.1127
848	-17.601
852	39.5771
856	-12.6884
860	1.26864
864	4.10672
868	40.4745
872	16.9044
876	14.1666
880	43.1058
884	16.9355
888	-6.84215
892	109.508
896	68.0322
900	-12.7018
904	70.1276
908	-5.80883
912	47.367
916	40.925
920	0.704882
924	41.3553
928	102.58
932	35.5307
936	2.32006
940	69.5181
944	-28.5377
948	40.3095
952	43.5837
956	22.6149
960	81.3082
964	-25.8479
968	-6.93971
972	12.6573
976	12.5082
980	26.7764
984	-8.95399
988	9.22185
992	26.0096
996	42.7257
1000	69.1676
1004	106.714
1008	-4.42258
1012	21.5999
1016	-2.70915
1020	53.0149
1024	95.9521
1028	3.96313
1032	64.9372
1036	21.6574
1040	1.73156
1044	-12.1843
1048	-14.4151
1052	-5.35394
1056	-48.1289
1060	-3.79246
1064	25.5953
1068	203.074
1072	390.13
1076	300.75
1080	130.278
1084	25.9617
1088	-6.58441
1092	-32.8421
1096	22.7136
1100	-0.257079
1104	-10.8866
1108	-0.506312
1112	-24.1262
1116	38.1323
1120	7.93849
1124	43.2462
1128	69.5886
1132	33.264
1136	16.7112
1140	91.0725
1144	78.117
1148	46.0814
1152	-10.9567
1156	19.2983
1160	85.8336
1164	-19.081
1168	-11.3931
1172	52.3645
1176	-3.16144
1180	-3.31526
1184	9.41907
1188	-9.92163
1192	43.5198
1196	-2.25297
1200	35.0887
1204	118.228
1208	112.04
1212	43.8505
1216	5.12957
1220	1.59167
1224	-7.76653
1228	-40.0591
1232	18.7922
1236	33.5835
1240	-17.5511
1244	127.149
1248	200.844
1252	217.116
1256	161.876
1260	236.05
1264	214.309
1268	78.1767
1272	14.9449
1276	-9.28626
1280	1.46727
1284	1.61842
1288	10.5898
1292	28.7521
1296	2.39839
1300	-16.3812
1304	-12.3999
1308	3.71071
1312	6.48795
1316	-8.62812
1320	17.8672
1324	29.0558
1328	7.99253
1332	36.7947
1336	10.2513
1340	-15.2686
1344	5.90287
1348	26.2888
1352	74.7731
1356	-25.5966
1360	31.6593
1364	17.0114
1368	33.4039
1372	-4.79081
1376	26.5967
1380	41.2722
1384	10.4101
1388	40.6895
1392	-15.0616
1396	7.57611
1400	-2.79327
1404	-3.62072
1408	37.548
1412	21.27
1416	-9.50186
1420	-7.7748
1424	34.0123
1428	14.7282
1432	40.2892
1436	-12.3548
1440	43.1127
1444	8.77486
1448	29.8483
1452	15.6288
1456	9.61193
1460	62.8903
1464	-1.89608
1468	25.9623
1472	17.6122
1476	5.89205
1480	45.6309
1484	41.2001
1488	-8.61922
1492	38.5639
1496	2.42964
1500	39.1715
1504	3.13044
1508	-2.17073
1512	2.01036
1516	8.72231
1520	39.5638
1524	19.865
1528	-28.1278
1532	37.1119
1536	85.3752
1540	-16.7978
1544	2.63688
1548	1.31953
1552	4.65031
1556	16.3988
1560	-2.24064
1564	5.45703
1568	36.2788
1572	6.74708
1576	77.0405
1580	85.8008
1584	5.72243
1588	21.1939
1592	-8.36102
1596	-6.52618
1600	16.1377
1604	13.8202
1608	60.672
1612	-12.1428
1616	25.476
1620	4.47831
1624	20.5622
1628	-12.2421
1632	16.3027
1636	-1.56551
1640	5.47566
1644	11.6199
1648	-7.78683
