Raman shift (cm-1)	intensity
320	-51.3798
324	-2.66119
328	-13.5218
332	9.9368
336	44.0006
340	0.268984
344	9.11232
348	2.24313
352	21.7001
356	-16.7968
360	-14.9301
364	-18.14
368	-4.35215
372	16.1655
376	16.1501
380	-7.65104
384	-18.0689
388	-33.5185
392	-38.1603
396	5.84241
400	-47.6134
404	-19.9429
408	-8.91698
412	-8.55942
416	38.2472
420	73.6373
424	75.1899
428	16.5593
432	12.3401
436	-28.6179
440	-54.7536
444	-35.1424
448	53.0334
452	42.5661
456	48.7052
460	0.760008
464	-15.1476
468	-30.9085
472	-39.5846
476	5.17457
480	-24.3328
484	10.6738
488	29.9925
492	-19.0367
496	-12.0288
500	-19.7383
504	-49.3971
508	-16.3461
512	-3.14552
516	61.9008
520	39.9764
524	-29.7576
528	-4.29389
532	16.0975
536	3.98639
540	20.7118
544	30.2721
548	13.4811
552	20.4162
556	2.64032
560	-0.240683
564	-16.7214
568	12.1104
572	-36.7623
576	7.1673
580	-21.4851
584	0.636563
588	-16.8023
592	-7.62415
596	4.41808
600	20.0015
604	6.56509
608	-20.3531
612	-24.5221
616	-3.76409
620	18.591
624	2.17174
628	-37.5606
632	61.0666
636	-24.9033
640	-12.9829
644	19.1934
648	-14.4383
652	-2.7618
656	-6.72866
660	2.22041
664	17.3491
668	-8.53003
672	26.6954
676	-30.9357
680	-21.4919
684	2.92577
688	0.894078
692	1.54751
696	-12.158
700	8.61955
704	0.346139
708	-31.8101
712	5.95464
716	-8.19916
720	8.21832
724	-14.2839
728	24.5443
732	-14.2605
736	-16.9281
740	-9.45284
744	-26.0035
748	12.295
752	-14.7655
756	0.142765
760	18.1235
764	-47.5037
768	21.3631
772	12.8037
776	-10.2246
780	-6.2876
784	7.52992
788	29.9334
792	-17.2294
796	-22.6682
800	42.796
804	-26.7178
808	22.737
812	-14.3257
816	7.26776
820	15.4293
824	-49.2452
828	18.2026
832	-13.1621
836	-9.31295
840	16.8937
844	-27.0865
848	1.81018
852	-28.1765
856	31.8255
860	5.22445
864	-28.8721
868	7.77253
872	26.4633
876	-25.1963
880	27.049
884	-14.3012
888	26.3844
892	1.27506
896	-5.45906
900	-9.88448
904	14.5757
908	-15.8502
912	18.4843
916	26.3516
920	-41.6438
924	32.7276
928	-6.12864
932	14.2111
936	-12.0641
940	-0.862123
944	-10.1336
948	-0.303618
952	-5.94279
956	0.101699
960	0.0881357
964	0.0858155
968	-11.5817
972	-4.37235
976	6.91664
980	7.01689
984	-8.95009
988	9.83368
992	9.14285
996	-15.4878
1000	6.59333
1004	5.37492
1008	-32.4999
1012	24.8734
1016	24.9505
1020	-8.0673
1024	-10.0083
1028	1.4255
1032	-13.0142
1036	6.50335
1040	18.5286
1044	-29.8745
1048	-0.412614
1052	-21.9998
1056	-29.4006
1060	-0.874382
1064	-35.049
1068	-4.78496
1072	65.6246
1076	39.2678
1080	33.0139
1084	12.1576
1088	-50.9767
1092	-12.6271
1096	-12.0348
1100	-20.6333
1104	-11.0407
1108	0.286375
1112	-2.30875
1116	-16.6902
1120	17.4575
1124	-16.1599
1128	-0.379383
1132	25.7989
1136	-35.1731
1140	48.9858
1144	-1.37379
1148	10.9229
1152	-25.1974
1156	6.53857
1160	11.7884
1164	-18.0603
1168	-3.77339
1172	36.1935
1176	-11.2204
1180	-3.19413
1184	-7.42015
1188	6.13931
1192	1.62409
1196	-10.3433
1200	-26.6507
1204	20.5006
1208	36.5535
1212	-17.2237
1216	1.99875
1220	3.55784
1224	-0.0508326
1228	-31.0338
1232	-0.437939
1236	-5.92442
1240	-23.0347
1244	16.753
1248	14.1544
1252	-0.726723
1256	26.2372
1260	18.1434
1264	13.4642
1268	-16.2158
1272	19.7249
1276	5.5481
1280	-5.9937
1284	-2.0802
1288	-29.4135
1292	23.9032
1296	-1.60929
1300	-14.2323
1304	-6.71457
1308	3.11202
1312	-32.0328
1316	-17.5472
1320	27.3696
1324	-2.41263
1328	-14.7652
1332	4.93218
1336	3.0527
1340	12.194
1344	-27.8394
1348	16.3823
1352	-1.17463
1356	-13.4321
1360	26.8063
1364	-11.8406
1368	14.8526
1372	-9.98081
1376	15.0286
1380	14.9238
1384	-34.6059
1388	8.29192
1392	5.60327
1396	7.5003
1400	-16.1443
1404	-7.50775
1408	7.73619
1412	18.0213
1416	-9.4114
1420	-11.6498
1424	7.21526
1428	9.32378
1432	-37.7401
1436	10.3444
1440	22.5945
1444	2.53417
1448	-8.33211
1452	-6.80981
1456	11.258
1460	-4.13127
1464	-10.0068
1468	-8.86439
1472	11.642
1476	17.5774
1480	7.00025
1484	-4.23277
1488	-17.067
1492	20.7863
1496	-19.3055
1500	22.8686
1504	-9.39503
1508	-20.8866
1512	11.552
1516	32.3718
1520	-37.0016
1524	1.32204
1528	-12.9247
1532	20.4449
1536	-8.80174
1540	-19.0589
1544	14.9418
1548	-10.1736
1552	30.0123
1556	-7.62157
1560	-27.8954
1564	-5.77828
1568	-4.44174
1572	-12.5302
1576	44.5645
1580	30.6832
1584	7.47334
1588	-11.446
1592	-12.3856
1596	6.81873
1600	-13.5812
1604	-4.1047
1608	-11.3741
1612	10.0808
1616	0.0281378
1620	18.575
1624	-32.5645
1628	9.32967
1632	9.21959
1636	-2.72401
1640	-3.08557
1644	-9.28603
1648	4.51581
