Raman shift (cm-1)	intensity
320	-16.9081
324	1.3286
328	-8.18299
332	30.9511
336	36.0612
340	88.3654
344	50.2245
348	22.1057
352	46.3576
356	59.7151
360	36.0874
364	-11.5775
368	32.1091
372	17.2475
376	147.373
380	-7.10233
384	37.186
388	-11.4378
392	-34.8526
396	-45.043
400	-82.5559
404	20.7482
408	80.7091
412	401.387
416	759.938
420	874.011
424	775.882
428	597.706
432	270.617
436	18.6558
440	-46.0417
444	39.6179
448	351.458
452	422.715
456	348.8
460	78.0669
464	-37.9558
468	-42.8435
472	-4.38167
476	-38.7389
480	5.69501
484	86.0316
488	108.284
492	102.616
496	-12.4026
500	-58.6953
504	-49.2431
508	33.8521
512	52.5541
516	238.672
520	324.515
524	222.797
528	44.8632
532	22.773
536	33.6859
540	203.736
544	263.79
548	255.294
552	228.397
556	110.285
560	52.0019
564	20.7878
568	-6.10235
572	-10.1353
576	-0.794708
580	-28.6924
584	-13.002
588	34.1719
592	10.0873
596	12.7794
600	28.0961
604	37.2903
608	1.29199
612	-14.9507
616	-11.1363
620	43.8649
624	43.4438
628	-0.137921
632	53.5847
636	19.3281
640	40.0088
644	19.8894
648	-4.13886
652	0.895451
656	28.8166
660	-8.49754
664	11.9012
668	81.6536
672	47.5276
676	-5.68346
680	-6.354
684	46.1563
688	65.8533
692	-15.7739
696	64.7401
700	110.198
704	54.8952
708	0.643466
712	24.5015
716	-23.0385
720	-0.350732
724	-1.59213
728	5.58052
732	15.8907
736	-31.0237
740	23.2705
744	1.72722
748	49.1206
752	-8.84881
756	46.1704
760	15.7516
764	5.7763
768	97.4863
772	79.5282
776	73.4082
780	9.79424
784	24.9217
788	89.7841
792	119.112
796	28.5818
800	12.5774
804	30.4882
808	-5.53329
812	53.8146
816	94.2004
820	19.3
824	-16.7898
828	40.352
832	-21.4963
836	21.1577
840	36.7838
844	20.2677
848	-12.4708
852	-19.4524
856	3.65404
860	15.904
864	-7.64837
868	57.4865
872	54.1594
876	-7.7708
880	76.3955
884	-27.4145
888	51.4131
892	86.1119
896	60.4917
900	-13.2245
904	45.6624
908	-3.73467
912	68.6718
916	123.739
920	-19.1726
924	72.1252
928	109.09
932	37.0584
936	46.5549
940	-29.6025
944	36.7663
948	21.1804
952	46.9669
956	36.3829
960	40.9974
964	-23.9291
968	17.4346
972	4.2057
976	36.5142
980	0.0788241
984	-15.961
988	7.52144
992	60.6473
996	69.6476
1000	69.872
1004	70.7675
1008	-4.4559
1012	-0.364656
1016	-9.6356
1020	70.3268
1024	18.6837
1028	32.724
1032	26.5299
1036	-17.1403
1040	34.7587
1044	-34.4536
1048	21.2487
1052	-12.323
1056	24.1257
1060	-14.8814
1064	46.3938
1068	236.336
1072	303.028
1076	256.854
1080	176.853
1084	27.4189
1088	9.43829
1092	1.49968
1096	-35.5202
1100	6.13532
1104	-1.35578
1108	8.39014
1112	0.610356
1116	3.38827
1120	-18.3694
1124	-6.83473
1128	61.9832
1132	92.2534
1136	-6.50716
1140	46.8697
1144	62.8708
1148	45.4168
1152	-10.4527
1156	11.143
1160	4.74797
1164	14.1654
1168	-23.8113
1172	10.9024
1176	10.0898
1180	-16.6587
1184	18.8757
1188	-10.4245
1192	36.0589
1196	10.9777
1200	87.1378
1204	108.227
1208	82.6835
1212	17.1101
1216	-11.2613
1220	20.6931
1224	-25.8551
1228	-3.86374
1232	1.14296
1236	15.1547
1240	76.7043
1244	167.905
1248	255.85
1252	252.136
1256	238.875
1260	227.713
1264	221.812
1268	55.942
1272	95.3254
1276	6.15775
1280	-24.7708
1284	-0.634351
1288	23.5236
1292	27.4968
1296	9.76207
1300	-20.0593
1304	1.53887
1308	-7.84907
1312	19.289
1316	25.6579
1320	-14.1286
1324	23.7318
1328	16.8456
1332	38.4565
1336	14.7758
1340	-2.49822
1344	24.9708
1348	23.5218
1352	35.5803
1356	23.5703
1360	2.66891
1364	61.6603
1368	52.2689
1372	51.952
1376	-12.4723
1380	19.9246
1384	42.9275
1388	27.1995
1392	-8.83242
1396	28.5707
1400	5.31063
1404	19.5076
1408	29.6828
1412	-14.4501
1416	18.4242
1420	8.89869
1424	44.2152
1428	62.713
1432	0.835066
1436	6.36439
1440	33.826
1444	27.2225
1448	10.6462
1452	-4.39398
1456	33.2289
1460	31.9866
1464	5.65717
1468	16.0544
1472	3.71231
1476	15.0054
1480	8.26687
1484	56.5504
1488	54.0228
1492	-2.36269
1496	6.11381
1500	19.0563
1504	-6.86481
1508	32.9558
1512	-3.39175
1516	27.0992
1520	6.08584
1524	-3.54431
1528	18.7869
1532	-7.33716
1536	33.5881
1540	-5.96329
1544	-5.94647
1548	53.1324
1552	21.2612
1556	45.8581
1560	-20.3545
1564	-2.10209
1568	43.4431
1572	17.1807
1576	155.075
1580	111.895
1584	51.9333
1588	-15.6654
1592	23.7637
1596	-10.1356
1600	29.3284
1604	-16.1104
1608	62.6158
1612	-5.67463
1616	0.295654
1620	39.2293
1624	9.96135
1628	7.03222
1632	-2.18755
1636	12.051
1640	37.5983
1644	-11.9713
1648	16.6796
