Raman shift (cm-1)	intensity
320	-22.5767
324	0.962892
328	-1.08525
332	5.79657
336	5.71198
340	7.49578
344	35.5226
348	0.258958
352	3.68039
356	10.0859
360	30.8656
364	0.944821
368	-1.28801
372	26.7322
376	5.07737
380	45.752
384	7.63938
388	-5.24442
392	-29.7209
396	7.82783
400	-19.2853
404	-19.1132
408	49.777
412	179.653
416	313.565
420	388.584
424	393.175
428	363.551
432	263.798
436	37.316
440	0.274919
444	3.79993
448	0.353416
452	10.2977
456	63.5393
460	19.2627
464	-1.92715
468	-5.35156
472	-1.54886
476	-20.6842
480	-4.71008
484	6.47497
488	48.2361
492	24.5307
496	-19.8489
500	0.436082
504	-24.4654
508	28.6218
512	108.93
516	156.352
520	211.5
524	130.12
528	33.764
532	51.1407
536	17.8378
540	46.454
544	23.3809
548	45.0421
552	39.6884
556	0.667727
560	-11.0908
564	-1.97662
568	-10.7472
572	-6.7824
576	-3.85122
580	-16.6746
584	23.7166
588	9.98274
592	20.8854
596	-6.85573
600	2.62335
604	-7.32508
608	-7.63914
612	-0.345202
616	-6.98234
620	36.0941
624	28.3337
628	0.280838
632	9.28113
636	43.6605
640	9.73296
644	8.23291
648	46.2992
652	27.1496
656	-5.76071
660	6.4447
664	21.1314
668	7.37372
672	24.4339
676	3.53085
680	-7.3162
684	41.8091
688	37.0285
692	-5.56852
696	35.8534
700	-0.363168
704	6.49234
708	6.74639
712	9.28469
716	-0.53927
720	61.1995
724	-0.987187
728	31.7636
732	5.52546
736	9.10534
740	5.42597
744	14.1674
748	14.7613
752	-19.0989
756	23.3164
760	1.85882
764	-0.696273
768	20.0877
772	-3.18757
776	54.1638
780	29.8374
784	-1.44411
788	2.22778
792	14.8694
796	39.4165
800	26.0614
804	39.1418
808	2.34027
812	4.49362
816	54.1398
820	29.7875
824	-14.827
828	-2.57478
832	47.1047
836	-12.6885
840	18.456
844	25.9484
848	4.16364
852	36.9965
856	-10.4793
860	-7.73148
864	35.5918
868	49.2364
872	44.564
876	1.4805
880	-10.0236
884	24.1967
888	-3.66759
892	-10.2649
896	40.8283
900	-3.3276
904	11.9598
908	35.8501
912	4.94662
916	6.54497
920	18.0324
924	1.67168
928	44.8984
932	35.6401
936	6.86546
940	45.4241
944	0.0677908
948	0.615514
952	13.0293
956	60.6067
960	14.9328
964	-8.01048
968	21.3489
972	-24.3754
976	8.41343
980	11.4643
984	2.485
988	27.9079
992	8.00456
996	-10.6809
1000	35.7563
1004	24.3987
1008	-10.9374
1012	19.0642
1016	24.2932
1020	5.07666
1024	16.6171
1028	34.7051
1032	7.33348
1036	5.61143
1040	51.0532
1044	-20.0437
1048	5.09529
1052	0.137069
1056	-30.1106
1060	25.6458
1064	-2.81568
1068	17.7564
1072	161.577
1076	297.541
1080	225.803
1084	139.253
1088	22.7799
1092	-13.9031
1096	-28.9491
1100	7.02156
1104	52.2432
1108	-1.5012
1112	7.39647
1116	1.21718
1120	-9.15135
1124	29.4129
1128	3.74488
1132	36.7824
1136	8.89148
1140	50.4429
1144	-3.25548
1148	-2.81378
1152	52.7244
1156	20.0912
1160	-14.0894
1164	-10.968
1168	21.5036
1172	7.73935
1176	27.8597
1180	45.9724
1184	0.473581
1188	-22.2592
1192	53.8669
1196	-2.39479
1200	12.4355
1204	21.8122
1208	56.2662
1212	3.22407
1216	51.9237
1220	5.11341
1224	22.9508
1228	-20.2749
1232	-10.024
1236	44.3752
1240	-13.226
1244	10.9447
1248	51.5863
1252	15.4748
1256	80.144
1260	69.925
1264	37.3923
1268	75.8304
1272	42.8364
1276	8.30924
1280	19.4
1284	18.6145
1288	-5.9484
1292	7.3066
1296	13.9648
1300	-8.18444
1304	10.7613
1308	-1.77573
1312	-2.60682
1316	15.54
1320	6.4097
1324	-0.215318
1328	31.8397
1332	0.945381
1336	8.35457
1340	-9.15493
1344	38.1788
1348	24.1889
1352	9.8358
1356	5.54444
1360	39.3374
1364	7.11074
1368	-8.92046
1372	28.9231
1376	26.1041
1380	12.7408
1384	2.29159
1388	0.0645083
1392	48.8937
1396	31.7489
1400	26.0593
1404	-1.83941
1408	39.6859
1412	1.63732
1416	5.65682
1420	33.8297
1424	-11.0931
1428	24.4522
1432	14.7784
1436	-0.691511
1440	21.4823
1444	30.6955
1448	-2.96394
1452	8.61173
1456	4.4709
1460	21.2844
1464	5.12629
1468	-4.50417
1472	10.8804
1476	28.7395
1480	7.22681
1484	18.4399
1488	-4.05276
1492	22.8046
1496	10.9368
1500	-0.0367545
1504	39.1673
1508	35.6198
1512	15.3382
1516	2.12838
1520	17.9426
1524	-3.9185
1528	8.28547
1532	4.94891
1536	17.7986
1540	0.815373
1544	8.97572
1548	22.1538
1552	39.1258
1556	-5.61071
1560	15.6649
1564	-20.7377
1568	-6.0376
1572	32.8064
1576	100.856
1580	211.863
1584	185.951
1588	42.7026
1592	5.33586
1596	-14.1905
1600	-8.84097
1604	19.3031
1608	4.60303
1612	36.4457
1616	10.1669
1620	-7.70485
1624	1.35095
1628	7.11843
1632	46.2844
1636	8.82715
1640	-7.20691
1644	6.02648
1648	-9.76481
