Raman shift (cm-1)	intensity
320	-20.5246
324	19.0875
328	-14.7442
332	7.85704
336	35.9088
340	43.6436
344	21.9479
348	6.41534
352	-0.364474
356	23.5686
360	21.811
364	-6.01834
368	28.1982
372	8.56186
376	6.27448
380	-6.34295
384	15.4797
388	-1.49654
392	11.4841
396	-18.5359
400	-18.7864
404	-2.44166
408	18.5184
412	112.971
416	191.275
420	219.697
424	235.01
428	186.111
432	100.496
436	31.7079
440	0.119521
444	-12.3031
448	48.5252
452	25.0102
456	58.8675
460	38.0544
464	-10.7062
468	-4.75398
472	-2.71136
476	-7.7409
480	8.89758
484	23.2678
488	6.27076
492	18.7788
496	14.4195
500	-24.8068
504	-1.37465
508	8.61709
512	11.4012
516	122.007
520	136.893
524	114.107
528	14.4373
532	2.68668
536	13.7313
540	21.9051
544	17.3323
548	37.1384
552	78.0775
556	7.53993
560	-18.3112
564	0.850874
568	0.780612
572	7.5038
576	-11.9334
580	21.2121
584	7.83973
588	-7.11528
592	11.4926
596	-2.94082
600	15.833
604	4.39424
608	-7.73184
612	15.1519
616	13.3246
620	28.4532
624	0.191065
628	2.66529
632	21.3369
636	3.85361
640	0.65102
644	10.5206
648	33.5186
652	20.9086
656	27.4563
660	-12.7188
664	7.212
668	44.8813
672	37.4148
676	-3.2513
680	26.2482
684	3.09843
688	-3.01937
692	30.193
696	12.1196
700	8.44898
704	18.4126
708	-3.64045
712	16.3657
716	9.59074
720	31.9352
724	-5.77976
728	-4.57933
732	-1.03619
736	-10.9086
740	-9.79663
744	22.4673
748	54.2533
752	15.6366
756	0.697196
760	5.98098
764	21.2975
768	-5.00208
772	45.216
776	-0.7555
780	5.90271
784	27.6246
788	9.328
792	8.88831
796	30.9331
800	-4.2092
804	13.516
808	54.3563
812	-0.425483
816	27.6346
820	24.9673
824	-13.2881
828	19.1263
832	-10.8106
836	3.81848
840	26.9756
844	-16.1331
848	23.4012
852	7.00339
856	-7.60144
860	19.1231
864	0.0668008
868	18.391
872	1.00209
876	14.1613
880	-11.4529
884	5.61379
888	11.5275
892	1.72033
896	43.4157
900	9.62132
904	-0.812033
908	6.94819
912	17.4074
916	17.5707
920	24.8962
924	3.71442
928	30.3662
932	0.676015
936	44.9192
940	9.82123
944	22.048
948	-4.60981
952	12.3014
956	37.9553
960	11.0643
964	-17.356
968	9.38467
972	2.83026
976	6.35001
980	-12.0003
984	5.31404
988	49.4237
992	-6.16708
996	46.9722
1000	29.3856
1004	21.5161
1008	5.7484
1012	30.6428
1016	-13.4082
1020	23.6358
1024	25.4748
1028	-7.83131
1032	24.6903
1036	42.5546
1040	2.02139
1044	-13.9935
1048	12.9215
1052	-14.411
1056	-19.9767
1060	-3.42543
1064	-8.42641
1068	24.2163
1072	195.578
1076	277.558
1080	233.914
1084	108.64
1088	18.1224
1092	-22.0195
1096	-8.00726
1100	-8.34652
1104	0.945751
1108	5.86448
1112	16.9842
1116	11.3844
1120	-6.40663
1124	14.8243
1128	2.59784
1132	13.1699
1136	19.8105
1140	44.3438
1144	52.8822
1148	-6.37753
1152	41.6395
1156	0.987848
1160	45.6491
1164	19.6566
1168	-6.15233
1172	-1.0824
1176	26.6541
1180	15.662
1184	2.47242
1188	-4.9013
1192	18.5682
1196	10.4736
1200	-8.58163
1204	40.4992
1208	54.652
1212	13.371
1216	43.4856
1220	5.51636
1224	20.1811
1228	-23.9929
1232	-0.508423
1236	10.9643
1240	1.95152
1244	23.7116
1248	16.7699
1252	55.0209
1256	5.25009
1260	84.5753
1264	29.7425
1268	11.7373
1272	-1.23883
1276	5.26906
1280	40.5902
1284	12.698
1288	-12.9725
1292	36.2268
1296	34.0336
1300	-15.9762
1304	16.482
1308	14.0141
1312	-3.68697
1316	-18.843
1320	34.8615
1324	5.41899
1328	8.6326
1332	-4.11812
1336	16.9567
1340	16.2119
1344	16.3259
1348	-6.90819
1352	-3.14048
1356	15.1468
1360	34.2662
1364	32.7023
1368	-11.6913
1372	5.88228
1376	3.90859
1380	16.6137
1384	22.6698
1388	-3.86316
1392	23.6784
1396	29.8615
1400	0.79934
1404	20.4932
1408	11.1508
1412	16.8323
1416	2.7563
1420	32.4841
1424	16.3907
1428	37.8327
1432	-9.19735
1436	-8.02201
1440	8.78202
1444	1.56453
1448	29.9319
1452	33.9677
1456	-6.51146
1460	4.80667
1464	28.3068
1468	24.3071
1472	-2.63858
1476	-3.31623
1480	2.83558
1484	41.8029
1488	15.6727
1492	24.5536
1496	-11.6657
1500	16.5669
1504	6.57943
1508	24.4748
1512	5.92207
1516	2.87847
1520	4.88755
1524	-5.68156
1528	0.26765
1532	3.61645
1536	0.949261
1540	-4.47404
1544	11.8967
1548	16.2675
1552	-4.68952
1556	0.133945
1560	-2.68487
1564	-4.04571
1568	28.2398
1572	62.0619
1576	87.3447
1580	193.127
1584	166.972
1588	55.6214
1592	5.51847
1596	-8.15365
1600	8.02932
1604	3.21319
1608	2.15007
1612	20.2049
1616	7.72286
1620	43.2531
1624	-3.32217
1628	3.4216
1632	3.13115
1636	51.0516
1640	5.43601
1644	-2.38154
1648	-1.28896
