Raman shift (cm-1)	intensity
320	-27.1462
324	12.6837
328	-2.7163
332	8.65561
336	2.77656
340	20.4604
344	32.648
348	-3.0414
352	35.9235
356	23.6538
360	-19.5124
364	20.2805
368	5.30191
372	35.7689
376	22.932
380	11.9734
384	-2.63715
388	32.0978
392	-19.0959
396	-15.9702
400	-23.9718
404	5.92111
408	36.7453
412	210.84
416	322.807
420	412.341
424	442.241
428	356.9
432	230.567
436	59.6935
440	-14.8846
444	-5.6349
448	21.5965
452	71.676
456	48.0781
460	26.3058
464	-7.60877
468	-7.48032
472	18.7284
476	4.22705
480	-35.6759
484	65.2365
488	74.2794
492	31.3156
496	-10.0068
500	-20.1101
504	-2.35539
508	46.3001
512	121.973
516	200.256
520	203.837
524	180.48
528	67.4852
532	3.75652
536	89.8116
540	42.2444
544	20.3983
548	42.4273
552	44.4207
556	30.2782
560	-4.57537
564	-11.0843
568	-0.4657
572	0.514449
576	4.92763
580	-8.29459
584	12.3723
588	-15.5766
592	-6.41153
596	45.6379
600	28.3893
604	-4.32782
608	-5.22367
612	10.1526
616	28.2805
620	27.8405
624	30.2588
628	-14.7211
632	31.8577
636	49.6654
640	-5.40345
644	9.01923
648	8.88035
652	15.0477
656	18.8441
660	8.16368
664	-0.0243114
668	28.0737
672	1.91971
676	18.5089
680	-9.57877
684	18.2723
688	-5.43655
692	-1.40624
696	1.41554
700	12.5771
704	26.945
708	13.6949
712	34.7697
716	6.69375
720	-1.9363
724	4.87484
728	11.7161
732	-8.95151
736	4.26545
740	2.45887
744	-4.32089
748	-15.6349
752	4.74789
756	25.6801
760	-5.78761
764	20.6931
768	8.80245
772	10.8832
776	6.43993
780	26.7057
784	2.66405
788	9.50101
792	25.237
796	75.9489
800	7.50216
804	15.47
808	1.01753
812	20.6954
816	41.5784
820	-2.8357
824	-3.72771
828	48.2869
832	-7.81735
836	-0.904777
840	18.479
844	7.7413
848	17.7291
852	6.58248
856	-17.0586
860	-1.32381
864	16.7092
868	48.976
872	15.3455
876	10.6243
880	-6.7852
884	42.5696
888	-6.8241
892	-5.24484
896	17.9345
900	8.1753
904	-2.56459
908	12.4224
912	38.8925
916	17.8824
920	41.9872
924	74.2453
928	13.6777
932	13.19
936	49.0175
940	50.8229
944	-1.84311
948	35.0536
952	5.17306
956	25.7576
960	11.8386
964	18.0114
968	-0.559811
972	0.875735
976	-11.5916
980	-2.16184
984	1.79456
988	59.9824
992	32.1363
996	43.4724
1000	29.2269
1004	33.215
1008	47.9937
1012	6.46189
1016	-12.3435
1020	56.8774
1024	37.2346
1028	38.6675
1032	46.8314
1036	40.0136
1040	33.9151
1044	-18.0945
1048	9.75757
1052	-8.38955
1056	-0.532557
1060	19.7523
1064	-24.1293
1068	38.1909
1072	207.211
1076	279.676
1080	227.156
1084	107.864
1088	9.79242
1092	-0.448962
1096	-34.1137
1100	-7.98171
1104	53.5459
1108	4.75627
1112	5.52898
1116	4.03083
1120	27.0815
1124	2.80436
1128	-3.25458
1132	20.7281
1136	0.504206
1140	68.8362
1144	16.1643
1148	-12.5897
1152	0.925601
1156	36.1217
1160	41.1213
1164	17.9847
1168	-5.22569
1172	26.0238
1176	27.1384
1180	16.5338
1184	0.753643
1188	20.5504
1192	-10.4254
1196	17.623
1200	40.1055
1204	-5.73444
1208	69.171
1212	11.1281
1216	23.4261
1220	-11.7266
1224	21.7528
1228	-14.6702
1232	18.4459
1236	-11.1132
1240	-3.28698
1244	34.2947
1248	16.9459
1252	78.9659
1256	86.12
1260	43.0115
1264	63.2637
1268	73.0087
1272	71.8823
1276	0.832914
1280	3.13986
1284	32.701
1288	9.99393
1292	-17.7704
1296	23.6275
1300	9.64706
1304	26.1502
1308	-14.0858
1312	17.1801
1316	17.1384
1320	6.44418
1324	23.5183
1328	47.9144
1332	-2.86123
1336	1.45415
1340	15.6773
1344	6.82389
1348	9.60297
1352	37.3707
1356	-7.32727
1360	30.6865
1364	6.13112
1368	12.8957
1372	12.6092
1376	19.1423
1380	-2.32936
1384	27.466
1388	-13.6861
1392	40.6521
1396	24.0716
1400	4.78114
1404	2.39598
1408	2.88358
1412	8.10698
1416	12.618
1420	61.416
1424	-10.8431
1428	3.37507
1432	12.2455
1436	18.8848
1440	22.9578
1444	-2.33699
1448	43.2321
1452	-14.3861
1456	33.3877
1460	6.58774
1464	-7.43768
1468	44.4698
1472	-1.68088
1476	12.9444
1480	2.2836
1484	28.1362
1488	11.8275
1492	-2.98168
1496	6.28753
1500	15.5762
1504	24.767
1508	0.791123
1512	12.9372
1516	-1.92949
1520	43.5502
1524	0.189035
1528	14.8561
1532	35.5893
1536	16.9319
1540	-20.2728
1544	5.89701
1548	5.77091
1552	4.33911
1556	8.66791
1560	17.9198
1564	-12.2753
1568	8.76958
1572	-13.8624
1576	138.325
1580	207.956
1584	216.442
1588	97.9673
1592	-3.55104
1596	11.2187
1600	-25.5791
1604	15.6705
1608	39.4455
1612	-5.26078
1616	0.0240889
1620	6.15909
1624	18.0896
1628	21.2651
1632	42.8892
1636	-21.7698
1640	-0.950144
1644	13.8129
1648	0.421224
