Raman shift (cm-1)	intensity
320	2.95843
324	-7.64604
328	-0.109371
332	0.703483
336	8.93398
340	33.1442
344	41.8169
348	47.4926
352	2.75908
356	2.34923
360	10.794
364	16.8267
368	9.29156
372	-0.670021
376	28.0174
380	8.94728
384	7.30152
388	0.295309
392	0.158116
396	-20.5337
400	-9.19852
404	-19.9283
408	22.8704
412	134.21
416	212.098
420	292.272
424	307.266
428	251.557
432	170.893
436	55.3933
440	1.30612
444	-6.07709
448	40.9823
452	68.373
456	58.4733
460	32.1822
464	12.4531
468	-2.24869
472	-22.0165
476	16.2325
480	-19.6876
484	48.466
488	34.801
492	22.9272
496	-3.68885
500	-11.211
504	-10.9435
508	14.6565
512	88.8837
516	145.625
520	147.358
524	144.688
528	71.0505
532	35.1285
536	12.9954
540	8.34344
544	19.1451
548	61.7123
552	46.2382
556	43.8341
560	-7.41516
564	1.70931
568	7.3706
572	9.41772
576	-9.32331
580	5.76996
584	4.52523
588	16.6099
592	3.91517
596	-1.43752
600	19.0046
604	9.1036
608	-3.67357
612	-0.737479
616	23.8044
620	10.0547
624	30.7459
628	-6.59458
632	3.82312
636	-8.59654
640	37.8322
644	2.08676
648	9.40737
652	8.51446
656	11.9768
660	14.3681
664	-3.02108
668	10.4008
672	1.53105
676	-11.1888
680	31.2013
684	10.8827
688	51.3191
692	-13.4935
696	1.43541
700	19.1036
704	16.472
708	26.9351
712	7.42679
716	41.6887
720	24.1386
724	-2.49138
728	-0.531934
732	-2.6993
736	3.42127
740	33.1336
744	-0.447688
748	9.45978
752	-7.07074
756	6.49902
760	8.30662
764	11.1553
768	51.6362
772	46.1531
776	39.7756
780	-0.738769
784	4.62854
788	9.75171
792	12.7814
796	12.1038
800	38.4024
804	22.8422
808	8.81208
812	27.2804
816	-3.32408
820	0.646611
824	5.63448
828	11.2477
832	3.48317
836	-2.31168
840	7.36358
844	17.4838
848	12.6289
852	-6.92565
856	14.2435
860	11.4107
864	-7.14935
868	17.4541
872	0.544117
876	30.4802
880	15.9717
884	7.94395
888	24.2733
892	-3.42736
896	4.65175
900	5.61786
904	24.0492
908	2.5
912	0.692446
916	9.85192
920	-1.44159
924	58.2223
928	43.2224
932	9.71536
936	0.438096
940	26.216
944	-12.263
948	13.9592
952	8.16445
956	15.7368
960	27.4038
964	-6.50326
968	-0.681035
972	11.0016
976	-22.7353
980	16.1058
984	-1.02441
988	10.232
992	8.10132
996	28.2906
1000	22.5302
1004	21.1976
1008	10.7946
1012	-0.752277
1016	15.02
1020	53.2675
1024	53.0503
1028	16.8017
1032	0.782771
1036	18.5801
1040	-0.239167
1044	-14.976
1048	38.7813
1052	-15.7152
1056	-15.8963
1060	-18.1304
1064	-7.18172
1068	60.8312
1072	165.184
1076	291.162
1080	272.982
1084	125.443
1088	-10.9102
1092	2.67923
1096	-12.0006
1100	-1.94743
1104	-18.3435
1108	-2.21335
1112	33.0307
1116	-3.52089
1120	22.1251
1124	-16.3331
1128	3.3198
1132	5.25511
1136	51.6261
1140	15.279
1144	-6.5429
1148	30.2423
1152	6.6485
1156	12.7898
1160	-8.1348
1164	17.088
1168	-6.93712
1172	3.12896
1176	18.3546
1180	12.7793
1184	36.0753
1188	-2.53747
1192	21.8776
1196	-17.2498
1200	20.6408
1204	44.7814
1208	28.2721
1212	20.7876
1216	22.5299
1220	21.6529
1224	-12.7628
1228	19.0054
1232	-12.2876
1236	-8.91889
1240	35.473
1244	6.14919
1248	22.4254
1252	40.7393
1256	16.8454
1260	49.1714
1264	58.6479
1268	25.1194
1272	25.7417
1276	16.0846
1280	-0.318785
1284	-3.14612
1288	31.3336
1292	-7.1783
1296	-8.13932
1300	35.5521
1304	10.3017
1308	5.94296
1312	-10.0082
1316	8.94727
1320	-14.4776
1324	31.5517
1328	9.80414
1332	39.4115
1336	2.30394
1340	4.76721
1344	29.3114
1348	-4.56521
1352	2.39807
1356	41.1738
1360	2.41607
1364	24.0079
1368	20.6487
1372	11.125
1376	0.595543
1380	13.2722
1384	6.99183
1388	35.3151
1392	6.5196
1396	-0.719615
1400	46.1638
1404	13.2663
1408	23.7264
1412	5.92844
1416	15.6593
1420	4.41522
1424	45.0143
1428	22.4503
1432	-8.12125
1436	28.6795
1440	21.8625
1444	-12.8434
1448	10.758
1452	8.02031
1456	-3.50446
1460	12.5306
1464	1.83218
1468	3.493
1472	12.3634
1476	-0.563801
1480	21.9816
1484	4.92237
1488	14.6802
1492	-0.583503
1496	5.85452
1500	8.4163
1504	6.76782
1508	-9.14333
1512	3.95343
1516	11.6915
1520	34.0289
1524	-0.859074
1528	2.01515
1532	0.382285
1536	5.52796
1540	-4.99568
1544	5.13322
1548	1.5371
1552	32.22
1556	5.05116
1560	-3.24915
1564	-25.7583
1568	12.5759
1572	50.7118
1576	131.121
1580	201.696
1584	202.044
1588	47.9005
1592	10.9976
1596	5.33301
1600	-33.3176
1604	27.3804
1608	11.1914
1612	5.01755
1616	23.3346
1620	22.4808
1624	24.32
1628	7.92042
1632	9.97796
1636	1.66106
1640	-8.33951
1644	7.15506
1648	5.4941
