Raman shift (cm-1)	intensity
320	17.3809
324	-12.6751
328	11.373
332	13.02
336	4.84398
340	24.4138
344	23.0426
348	62.6685
352	61.3248
356	54.2622
360	15.9907
364	-7.03227
368	-0.846306
372	16.9345
376	24.6002
380	-13.4147
384	11.351
388	46.3771
392	-19.2422
396	-11.2267
400	-1.97307
404	-4.43991
408	-4.25674
412	61.4197
416	175.922
420	238.546
424	250.37
428	207.719
432	164.651
436	61.1528
440	10.0976
444	-10.8131
448	13.2418
452	54.9105
456	66.3099
460	27.3417
464	19.266
468	-32.8788
472	-5.87543
476	-1.27401
480	-8.02851
484	54.3865
488	6.84617
492	36.4942
496	-1.6305
500	-20.6774
504	-2.43691
508	6.26504
512	51.852
516	118.349
520	156.777
524	129.026
528	43.8917
532	1.35061
536	3.05197
540	52.1818
544	30.3231
548	13.9742
552	38.6191
556	-1.15036
560	-3.91775
564	1.27409
568	-11.8648
572	20.8964
576	2.29697
580	12.1915
584	58.9373
588	0.466
592	-10.2556
596	17.3013
600	31.66
604	15.613
608	2.74037
612	-16.5701
616	5.67068
620	26.3547
624	20.1931
628	2.84522
632	29.0017
636	6.31274
640	18.6876
644	18.6117
648	12.2969
652	43.1762
656	-10.2904
660	2.99914
664	42.6492
668	2.52958
672	36.6593
676	23.7385
680	-6.92536
684	8.67288
688	24.4329
692	0.267176
696	13.1527
700	6.54434
704	15.7575
708	-2.25069
712	8.41593
716	-4.07362
720	3.40358
724	25.9323
728	-1.85472
732	0.872971
736	19.3743
740	-2.44796
744	4.80135
748	-12.3858
752	-0.103504
756	33.3388
760	-2.60361
764	19.6438
768	9.41605
772	30.6508
776	33.4489
780	-10.0313
784	-1.60267
788	75.7352
792	29.9997
796	9.4268
800	36.5838
804	1.0617
808	32.6245
812	-2.31869
816	2.21281
820	20.758
824	-12.3635
828	8.46615
832	-6.67881
836	24.2249
840	43.6419
844	1.89951
848	28.074
852	-5.85053
856	-2.0926
860	-1.26846
864	7.98605
868	17.7782
872	15.5684
876	-5.46025
880	35.4257
884	28.5746
888	23.2036
892	-0.653234
896	15.2641
900	-0.692506
904	1.79583
908	23.6573
912	4.88349
916	13.3369
920	2.12945
924	42.1395
928	48.7304
932	17.3911
936	24.0599
940	-6.62532
944	42.7038
948	12.446
952	24.8308
956	20.7283
960	5.58779
964	19.7675
968	-0.865947
972	1.14555
976	0.656261
980	20.2737
984	3.77239
988	23.5025
992	31.3378
996	0.121671
1000	9.28991
1004	0.475719
1008	-4.98134
1012	49.4405
1016	12.4859
1020	5.58436
1024	12.6033
1028	24.9588
1032	0.832434
1036	28.0596
1040	-3.06298
1044	0.359962
1048	9.09737
1052	-15.1391
1056	-27.5057
1060	-4.88172
1064	-11.9209
1068	49.0984
1072	212.173
1076	291.302
1080	277.188
1084	159.939
1088	30.8349
1092	-17.4619
1096	-15.9391
1100	-0.716114
1104	5.84013
1108	7.43766
1112	10.0939
1116	3.81697
1120	4.5024
1124	-7.74742
1128	43.7413
1132	11.9915
1136	-3.00569
1140	13.7723
1144	33.403
1148	21.0603
1152	30.146
1156	-2.38044
1160	-9.99894
1164	19.9501
1168	6.35001
1172	16.9182
1176	-6.46838
1180	17.9947
1184	33.4814
1188	-4.17568
1192	24.695
1196	26.0954
1200	17.2635
1204	-0.285015
1208	14.39
1212	45.7109
1216	14.7318
1220	11.8584
1224	46.6084
1228	-17.3152
1232	-9.31657
1236	18.1595
1240	-9.00887
1244	11.8187
1248	13.9353
1252	54.4055
1256	35.7271
1260	32.8865
1264	48.4391
1268	46.6299
1272	1.79889
1276	18.8167
1280	13.3215
1284	16.4288
1288	-6.29468
1292	0.843396
1296	33.3741
1300	1.19371
1304	-20.4991
1308	39.8303
1312	1.59028
1316	-2.81805
1320	1.42184
1324	3.52146
1328	28.6544
1332	-0.619102
1336	-2.6595
1340	-2.41569
1344	38.1306
1348	18.3384
1352	1.11084
1356	23.6542
1360	37.4621
1364	21.5721
1368	-13.1749
1372	-1.13112
1376	36.0041
1380	6.23335
1384	14.9626
1388	-8.01492
1392	34.7775
1396	24.6226
1400	40.4498
1404	-8.51923
1408	8.7019
1412	44.9558
1416	-0.332104
1420	11.7017
1424	2.49989
1428	22.6078
1432	16.5963
1436	-7.58179
1440	-7.99534
1444	3.80285
1448	6.07873
1452	27.7147
1456	5.72765
1460	3.53008
1464	-3.03487
1468	40.0522
1472	23.5052
1476	-15.493
1480	14.9681
1484	44.1552
1488	28.6331
1492	27.1364
1496	-20.1929
1500	4.79156
1504	16.6343
1508	22.5377
1512	1.79341
1516	19.2066
1520	15.1176
1524	3.62554
1528	8.65118
1532	17.4975
1536	13.0174
1540	-19.3667
1544	35.3298
1548	32.3629
1552	54.1243
1556	6.00209
1560	-28.1956
1564	-16.0267
1568	-10.102
1572	63.8451
1576	170.298
1580	273.449
1584	181.453
1588	40.7037
1592	-1.9895
1596	-9.64347
1600	16.6928
1604	10.9746
1608	12.6525
1612	-4.80014
1616	7.13633
1620	3.65852
1624	2.5243
1628	35.2653
1632	49.8777
1636	2.96257
1640	38.5327
1644	-8.17827
1648	12.6052
