Raman shift (cm-1)	intensity
320	13.5661
324	10.7514
328	-14.2799
332	13.9973
336	41.5452
340	19.6833
344	-0.973627
348	26.3956
352	29.4463
356	29.9822
360	8.37501
364	4.02393
368	0.77469
372	21.1634
376	26.5603
380	-9.31187
384	-6.69391
388	-7.95175
392	-1.80423
396	-6.45339
400	-13.4344
404	-2.4235
408	6.34536
412	72.231
416	143.023
420	164.912
424	173.04
428	80.4235
432	18.6428
436	5.23144
440	-9.83734
444	-6.1971
448	21.2352
452	15.0084
456	40.2786
460	36.4527
464	10.9555
468	-9.89834
472	-9.79048
476	14.0208
480	0.95057
484	-11.1917
488	46.4426
492	28.6013
496	22.1782
500	-14.4995
504	-6.80102
508	22.9385
512	94.0621
516	105.593
520	108.376
524	61.661
528	38.9335
532	44.3748
536	41.0686
540	2.70496
544	31.719
548	40.6428
552	21.4033
556	2.81998
560	8.72634
564	-10.5231
568	-3.80492
572	24.2955
576	-3.70569
580	10.2965
584	-6.19975
588	22.0214
592	13.8498
596	0.676582
600	38.6357
604	-20.4521
608	26.2891
612	16.5489
616	-9.89242
620	1.56147
624	11.8962
628	33.796
632	1.58305
636	-7.05356
640	27.7502
644	-1.42764
648	3.75307
652	41.5947
656	-5.63131
660	12.8493
664	0.055781
668	-5.6546
672	31.4791
676	-11.4148
680	38.6241
684	9.70312
688	22.5247
692	-3.22563
696	22.9852
700	32.2578
704	-12.3165
708	9.32687
712	24.6374
716	32.7563
720	5.82917
724	27.89
728	19.8733
732	-11.3783
736	-0.249363
740	-6.09033
744	-3.99015
748	33.3335
752	-3.65297
756	6.62378
760	6.22224
764	17.5287
768	3.42001
772	63.8226
776	56.2555
780	31.0869
784	-9.42487
788	37.5468
792	14.072
796	0.294436
800	43.2822
804	52.1248
808	42.3981
812	1.35426
816	13.4734
820	45.0281
824	-11.3142
828	38.0742
832	-10.4318
836	42.0156
840	7.39439
844	-11.1585
848	42.4835
852	29.987
856	5.39257
860	-5.96752
864	22.7775
868	6.21084
872	14.1188
876	-3.26296
880	5.16246
884	13.7485
888	-19.3297
892	33.2268
896	30.4309
900	0.338093
904	23.1363
908	-0.146256
912	19.4961
916	15.2515
920	6.79738
924	37.1125
928	67.1661
932	16.5391
936	19.4759
940	2.55081
944	-1.52888
948	24.0968
952	7.42691
956	35.795
960	11.3053
964	-2.82467
968	9.95934
972	-3.99392
976	-5.8756
980	12.6754
984	18.8468
988	14.2404
992	13.671
996	11.9891
1000	13.7227
1004	24.8392
1008	-9.0066
1012	2.00455
1016	28.4628
1020	18.1321
1024	67.9942
1028	-2.61116
1032	23.0101
1036	3.99399
1040	0.206768
1044	-5.33095
1048	23.959
1052	-14.1222
1056	-18.2396
1060	13.707
1064	-6.39356
1068	67.8075
1072	212.28
1076	286.189
1080	218.424
1084	53.9032
1088	3.2651
1092	-21.1064
1096	-11.2254
1100	-15.1142
1104	31.9886
1108	-5.30978
1112	14.0215
1116	-4.02438
1120	-2.42958
1124	19.3703
1128	1.56742
1132	-4.26905
1136	11.9168
1140	45.7443
1144	37.2615
1148	31.8877
1152	-1.08063
1156	10.2555
1160	3.92203
1164	6.28216
1168	9.6542
1172	-8.04527
1176	8.63729
1180	28.539
1184	5.52551
1188	0.896337
1192	-3.96357
1196	-2.81686
1200	40.0819
1204	16.6659
1208	49.9862
1212	-6.50889
1216	17.607
1220	-4.53605
1224	0.892346
1228	-17.9571
1232	-1.93862
1236	21.0866
1240	10.7888
1244	38.5116
1248	31.1827
1252	5.72905
1256	29.2354
1260	36.5582
1264	39.784
1268	31.651
1272	25.058
1276	1.89799
1280	6.11613
1284	5.74809
1288	31.8581
1292	17.7566
1296	0.608492
1300	-0.271577
1304	32.7534
1308	-5.29338
1312	15.2753
1316	-12.0938
1320	34.172
1324	26.6441
1328	4.06147
1332	3.71567
1336	6.52339
1340	4.83905
1344	-1.84177
1348	5.15594
1352	11.7438
1356	29.3278
1360	-3.9583
1364	30.0826
1368	2.22731
1372	18.02
1376	0.418463
1380	20.531
1384	-1.14616
1388	43.3236
1392	-15.6573
1396	42.969
1400	-6.09821
1404	41.0907
1408	11.3194
1412	3.45971
1416	25.594
1420	0.969131
1424	25.5581
1428	-11.9151
1432	9.33995
1436	31.1047
1440	4.38121
1444	7.95971
1448	-12.6737
1452	31.6921
1456	26.5263
1460	21.0497
1464	8.33401
1468	4.70776
1472	9.84822
1476	25.7967
1480	4.40704
1484	20.3592
1488	16.9539
1492	10.3084
1496	-1.88251
1500	0.686132
1504	11.8379
1508	-18.049
1512	19.7498
1516	30.8392
1520	2.66388
1524	-5.36714
1528	3.42267
1532	4.75576
1536	12.1126
1540	29.5133
1544	-4.07142
1548	1.97377
1552	6.16884
1556	0.461827
1560	13.2328
1564	-33.2647
1568	14.8962
1572	99.355
1576	208.327
1580	277.335
1584	189.045
1588	114.886
1592	8.68156
1596	-24.3799
1600	2.70153
1604	9.03797
1608	8.39826
1612	8.22506
1616	13.4729
1620	-9.05082
1624	10.4243
1628	24.1224
1632	-7.64536
1636	28.131
1640	24.3041
1644	35.4063
1648	-10.0059
