Raman shift (cm-1)	intensity
320	-3.99448
324	13.9668
328	15.0231
332	13.666
336	46.8922
340	27.2145
344	10.4455
348	15.3168
352	-0.0729922
356	0.937454
360	10.2066
364	16.1262
368	-4.0429
372	0.603439
376	33.741
380	24.2531
384	26.5493
388	3.20677
392	-9.43857
396	-25.7327
400	18.4967
404	-14.5874
408	8.48142
412	54.2198
416	39.5849
420	111.125
424	192.863
428	149.058
432	71.0247
436	1.6398
440	36.7112
444	-23.6767
448	40.7213
452	12.0558
456	27.0198
460	17.8019
464	-16.7413
468	34.6035
472	-23.7217
476	18.7169
480	5.63974
484	-9.7309
488	33.9403
492	7.46707
496	-0.652315
500	-16.8354
504	2.96393
508	51.2638
512	137.163
516	235.978
520	211.087
524	156.479
528	22.1785
532	9.32335
536	9.27793
540	11.8341
544	10.4616
548	47.1429
552	71.0414
556	2.62314
560	21.4086
564	-6.39302
568	-17.0902
572	24.2083
576	-27.0324
580	5.43114
584	41.7735
588	12.227
592	2.75436
596	10.2362
600	-7.90653
604	25.5627
608	19.0209
612	-9.18948
616	20.1775
620	26.4981
624	13.259
628	21.4412
632	31.6948
636	5.45187
640	29.6302
644	47.4877
648	20.2263
652	28.1283
656	38.0777
660	-9.97747
664	4.29553
668	40.2653
672	25.0148
676	-15.3359
680	-0.512107
684	31.7275
688	1.53709
692	40.8938
696	-8.2618
700	-1.83185
704	31.9281
708	27.2984
712	10.4327
716	25.3757
720	8.80571
724	11.2922
728	12.6495
732	46.5399
736	9.19979
740	-17.5986
744	8.67569
748	8.46108
752	2.85841
756	19.7747
760	7.84111
764	-3.28824
768	17.754
772	26.1986
776	9.03064
780	34.5876
784	-5.41167
788	5.53481
792	0.37925
796	29.0601
800	15.7072
804	36.2057
808	29.6305
812	47.9252
816	14.9234
820	-1.67484
824	-11.9967
828	25.967
832	-5.29862
836	46.1753
840	14.7086
844	-9.54605
848	13.4889
852	-9.09589
856	41.6818
860	31.6203
864	53.7181
868	7.96787
872	-11.4733
876	50.9921
880	29.8738
884	14.6164
888	14.7523
892	-2.7998
896	-9.91332
900	17.2798
904	-7.64348
908	8.9813
912	9.06497
916	45.6889
920	-15.4668
924	52.0503
928	6.19068
932	45.718
936	-6.75951
940	3.49751
944	15.7478
948	43.9183
952	3.86822
956	53.1178
960	23.1049
964	-16.6756
968	15.7976
972	-0.990975
976	-9.13885
980	14.3356
984	4.86668
988	-4.52424
992	15.5118
996	30.3333
1000	48.6955
1004	32.2955
1008	15.8227
1012	0.95572
1016	25.5787
1020	16.8763
1024	23.5236
1028	-3.80493
1032	19.0044
1036	6.24915
1040	23.6444
1044	23.6494
1048	-2.42134
1052	-12.9872
1056	12.9267
1060	-39.0049
1064	-15.8701
1068	86.3292
1072	376.46
1076	590.942
1080	555.592
1084	254.384
1088	23.3936
1092	-36.2464
1096	2.34515
1100	-23.6861
1104	17.6748
1108	-2.82974
1112	29.5822
1116	-16.0048
1120	23.5586
1124	0.657384
1128	18.5192
1132	7.00204
1136	52.3
1140	16.1471
1144	55.2789
1148	11.3549
1152	-16.0809
1156	45.8399
1160	0.44441
1164	25.6989
1168	-30.9977
1172	28.1488
1176	98.8693
1180	21.1941
1184	7.60766
1188	-5.98089
1192	9.07049
1196	-2.75858
1200	22.9752
1204	38.7882
1208	47.2238
1212	5.73173
1216	23.1411
1220	4.22713
1224	18.5533
1228	-18.4847
1232	14.7869
1236	29.867
1240	11.9072
1244	26.3456
1248	35.065
1252	19.3496
1256	51.3601
1260	35.0957
1264	38.4381
1268	61.0781
1272	31.1508
1276	5.63073
1280	27.7403
1284	12.2409
1288	-1.16445
1292	9.91674
1296	40.293
1300	5.04215
1304	-16.2151
1308	13.0406
1312	15.7473
1316	-7.68788
1320	10.6092
1324	20.1713
1328	-2.82677
1332	12.5192
1336	6.52332
1340	6.25885
1344	9.17878
1348	7.83205
1352	-14.8439
1356	66.7653
1360	-2.94663
1364	0.90863
1368	19.8375
1372	28.833
1376	8.2689
1380	30.3052
1384	-0.630356
1388	36.5664
1392	13.5402
1396	22.5574
1400	-1.99296
1404	-3.09334
1408	40.6619
1412	47.7448
1416	2.28957
1420	22.4437
1424	-19.3024
1428	32.49
1432	3.29253
1436	4.98987
1440	46.9341
1444	16.2931
1448	3.03274
1452	51.0676
1456	-13.5631
1460	24.8966
1464	-1.96153
1468	64.8394
1472	61.5014
1476	3.22317
1480	3.73572
1484	20.8032
1488	26.1766
1492	-4.85428
1496	-4.00153
1500	24.1135
1504	22.5615
1508	2.07987
1512	5.68337
1516	4.06363
1520	-7.44276
1524	-6.68494
1528	35.7206
1532	-11.6056
1536	37.0107
1540	18.6548
1544	-15.0624
1548	-1.40537
1552	28.5992
1556	5.7605
1560	-11.8351
1564	-36.9847
1568	8.50479
1572	62.6367
1576	287.201
1580	432.008
1584	315.662
1588	77.252
1592	-8.12042
1596	-18.2202
1600	9.7259
1604	1.30961
1608	10.1481
1612	4.30167
1616	-5.03714
1620	11.757
1624	25.8416
1628	-8.71663
1632	32.0064
1636	27.6514
1640	25.6407
1644	8.28591
1648	-8.98763
