Raman shift (cm-1)	intensity
320	-16.9093
324	22.7253
328	-8.75106
332	16.4361
336	67.1902
340	30.7688
344	5.44779
348	55.4583
352	124.89
356	94.1738
360	159.67
364	141.556
368	92.4911
372	58.5489
376	17.5995
380	10.183
384	4.86598
388	-10.468
392	-15.0645
396	3.26938
400	-0.869619
404	59.0835
408	94.5422
412	158.835
416	185.593
420	236.854
424	231.638
428	192.113
432	104.383
436	46.1592
440	14.7308
444	-0.273057
448	50.6627
452	38.4145
456	44.5612
460	-1.66092
464	2.51059
468	-12.7864
472	8.34779
476	9.16591
480	-15.887
484	33.2475
488	40.1237
492	45.8266
496	24.3407
500	7.72184
504	5.35938
508	35.9583
512	152.178
516	231.868
520	301.648
524	251.28
528	233.37
532	167.645
536	153.354
540	137.17
544	120.036
548	58.4186
552	59.8649
556	49.511
560	0.626171
564	-7.02011
568	0.772371
572	-0.602788
576	25.8818
580	14.2917
584	21.325
588	15.9446
592	-1.46271
596	30.6443
600	37.2858
604	31.0679
608	30.5115
612	-9.50733
616	6.97911
620	-1.85402
624	49.5819
628	22.217
632	35.596
636	41.5531
640	60.7873
644	28.7897
648	5.69203
652	-0.409388
656	7.28767
660	30.0235
664	12.0228
668	22.1781
672	20.4199
676	4.2353
680	3.33428
684	14.809
688	21.8854
692	41.735
696	35.6993
700	36.9177
704	-2.46543
708	37.4752
712	111.678
716	85.3512
720	62.4925
724	20.1187
728	34.007
732	16.3872
736	28.2402
740	11.1645
744	-13.4395
748	21.3077
752	57.4258
756	23.3988
760	1.04924
764	18.1996
768	79.4482
772	50.8035
776	22.2331
780	42.9906
784	53.1713
788	37.6596
792	70.7276
796	50.551
800	14.1
804	32.5516
808	31.8717
812	58.0509
816	20.9066
820	9.67112
824	9.48612
828	-7.79151
832	46.0138
836	0.106045
840	19.9662
844	74.117
848	23.6668
852	59.8607
856	7.72017
860	-4.04728
864	15.9889
868	11.2973
872	25.0567
876	31.6787
880	1.32043
884	46.5046
888	7.29581
892	29.2061
896	19.308
900	-7.25463
904	36.7977
908	76.541
912	41.0216
916	4.91275
920	11.6786
924	49.4962
928	37.7831
932	14.9016
936	12.5169
940	11.5895
944	11.9254
948	15.5806
952	6.39887
956	-4.18797
960	9.49173
964	34.571
968	27.2898
972	30.2984
976	52.9883
980	-7.27855
984	16.1937
988	37.7052
992	29.0726
996	51.0863
1000	67.3836
1004	34.7674
1008	39.7418
1012	86.586
1016	33.8541
1020	52.6749
1024	57.8262
1028	45.4148
1032	9.911
1036	-0.867427
1040	12.0047
1044	62.9296
1048	-37.5741
1052	-2.43208
1056	50.9008
1060	-7.46245
1064	43.9636
1068	193.76
1072	375.236
1076	599.917
1080	587.035
1084	399.039
1088	173.166
1092	21.7636
1096	-4.53546
1100	-17.2944
1104	2.20803
1108	3.49886
1112	25.6366
1116	-0.234808
1120	30.691
1124	-10.8951
1128	38.7373
1132	29.5481
1136	49.6514
1140	66.9732
1144	45.4395
1148	55.0394
1152	6.97976
1156	21.4695
1160	-1.57992
1164	27.1002
1168	-1.1503
1172	44.2681
1176	33.449
1180	68.567
1184	83.818
1188	80.7499
1192	-2.38856
1196	20.6927
1200	-3.98916
1204	56.4921
1208	43.5332
1212	25.0375
1216	24.0607
1220	9.57472
1224	-1.07003
1228	8.12872
1232	-8.91177
1236	27.1228
1240	25.5797
1244	88.4742
1248	109.365
1252	128.285
1256	101.354
1260	94.1559
1264	117.696
1268	104.978
1272	57.3643
1276	97.8601
1280	74.7458
1284	58.659
1288	46.3457
1292	38.3094
1296	23.0523
1300	10.0451
1304	23.9739
1308	-0.146573
1312	-10.7652
1316	0.416119
1320	3.43793
1324	16.5381
1328	6.06385
1332	72.3079
1336	28.8039
1340	3.58146
1344	17.8939
1348	17.344
1352	2.74866
1356	38.7109
1360	17.9754
1364	-4.04667
1368	50.7306
1372	32.4551
1376	5.01238
1380	25.9434
1384	17.0914
1388	1.1366
1392	39.7885
1396	7.56546
1400	16.9638
1404	6.50762
1408	33.9569
1412	4.65626
1416	27.2314
1420	25.2568
1424	32.1801
1428	13.3536
1432	17.3145
1436	0.797201
1440	13.0297
1444	21.9004
1448	18.6975
1452	14.2735
1456	-1.39422
1460	14.702
1464	0.101828
1468	36.2013
1472	28.4016
1476	23.7848
1480	12.3955
1484	27.2554
1488	5.97145
1492	-5.69001
1496	26.9736
1500	35.8698
1504	2.88708
1508	-1.4149
1512	10.2058
1516	15.5047
1520	26.8581
1524	5.64987
1528	-3.10302
1532	8.59149
1536	8.9659
1540	5.56934
1544	7.14259
1548	19.359
1552	33.3484
1556	-13.8988
1560	12.4582
1564	-11.5076
1568	47.4992
1572	136.711
1576	304.571
1580	454.747
1584	389.28
1588	236.084
1592	75.1722
1596	17.5229
1600	-20.792
1604	23.1992
1608	-2.15798
1612	9.60928
1616	33.2816
1620	14.0485
1624	19.9171
1628	27.3188
1632	4.24847
1636	72.3173
1640	-9.42673
1644	15.2984
1648	13.2913
