Raman shift (cm-1)	intensity
320	-29.0968
324	10.9545
328	29.7092
332	24.4791
336	64.8186
340	45.7619
344	5.33224
348	24.4115
352	31.1294
356	-1.8195
360	-0.239586
364	-18.2401
368	6.00377
372	-0.422308
376	19.1573
380	-1.94897
384	-1.36591
388	3.22329
392	-34.0295
396	2.61387
400	-11.4909
404	10.3345
408	35.474
412	25.8194
416	73.2548
420	137.474
424	162.101
428	116.01
432	96.5406
436	19.7976
440	9.01044
444	-5.36983
448	38.8491
452	38.36
456	-12.1489
460	5.34604
464	9.69621
468	-13.746
472	18.7987
476	11.9394
480	-5.98193
484	-1.01757
488	53.3218
492	-7.92965
496	18.2705
500	-21.1557
504	5.94436
508	14.4264
512	58.1263
516	170.308
520	192.648
524	104.162
528	23.6199
532	9.26422
536	-8.13155
540	38.7038
544	39.3704
548	15.2171
552	36.7375
556	8.81575
560	-13.3923
564	-9.65216
568	36.8087
572	3.28015
576	3.84287
580	16.1555
584	-9.67642
588	26.1097
592	-3.69099
596	14.6632
600	2.43108
604	-7.28067
608	16.3304
612	11.8616
616	13.5826
620	13.3915
624	22.0178
628	-8.21573
632	24.7833
636	37.6947
640	4.32691
644	4.20317
648	44.025
652	-0.557453
656	23.6863
660	-3.68329
664	3.53601
668	27.2189
672	22.7135
676	-17.4283
680	2.88506
684	19.3916
688	2.45959
692	18.7
696	29.9633
700	21.8495
704	1.95647
708	-0.367259
712	47.2979
716	31.1953
720	-11.1656
724	29.3389
728	0.323467
732	0.46134
736	10.0614
740	-7.4455
744	-0.027817
748	-4.54006
752	4.88793
756	6.94553
760	18.8748
764	-17.6487
768	33.131
772	28.5494
776	17.1446
780	6.66421
784	6.35394
788	23.6356
792	22.1033
796	27.9742
800	16.7287
804	2.1513
808	3.87321
812	26.7201
816	32.3541
820	-2.4174
824	9.5583
828	13.8527
832	-3.66234
836	-2.03034
840	1.77776
844	40.3987
848	-19.4051
852	17.3264
856	-2.7708
860	-4.91633
864	21.3727
868	4.22791
872	-3.10564
876	1.48153
880	11.1316
884	36.6522
888	45.4564
892	2.36901
896	22.5586
900	-3.16656
904	44.5744
908	37.1055
912	33.8926
916	-9.58688
920	5.27355
924	4.99299
928	28.5302
932	39.1936
936	9.83086
940	0.307681
944	12.6028
948	9.93035
952	0.87048
956	-2.82397
960	10.8009
964	-0.194956
968	10.1295
972	-22.0215
976	9.1876
980	2.7448
984	21.4686
988	10.8747
992	-9.87091
996	22.0622
1000	57.5514
1004	41.4189
1008	-9.32755
1012	38.6608
1016	1.18289
1020	48.1018
1024	-0.825871
1028	19.6027
1032	24.777
1036	-4.45008
1040	4.51204
1044	5.51761
1048	16.6943
1052	-1.31334
1056	-20.7067
1060	-14.6647
1064	-42.5891
1068	53.4588
1072	321.54
1076	590.549
1080	554.586
1084	352.117
1088	65.8405
1092	-25.4304
1096	-19.6451
1100	-16.5307
1104	7.12397
1108	-12.2947
1112	16.8092
1116	25.3415
1120	6.93245
1124	-4.87291
1128	-6.21323
1132	23.3794
1136	15.0107
1140	46.7532
1144	55.6414
1148	4.25383
1152	-11.2954
1156	9.15773
1160	-2.9243
1164	11.5569
1168	2.79471
1172	2.42353
1176	12.21
1180	41.3208
1184	30.9838
1188	-4.2632
1192	-14.2638
1196	-7.91042
1200	16.3102
1204	5.71876
1208	33.1251
1212	1.97576
1216	-0.244596
1220	31.1985
1224	25.4307
1228	8.89747
1232	-3.97684
1236	-7.64142
1240	12.6263
1244	13.3363
1248	31.0805
1252	17.1537
1256	4.04127
1260	37.1592
1264	23.0659
1268	5.16226
1272	20.8667
1276	-8.40249
1280	42.6083
1284	15.174
1288	17.2461
1292	-17.0963
1296	33.1599
1300	6.2617
1304	5.11694
1308	7.75422
1312	0.971235
1316	2.29732
1320	2.01664
1324	32.7502
1328	11.0039
1332	21.2383
1336	18.5263
1340	4.30963
1344	9.44356
1348	33.865
1352	-3.9685
1356	9.08421
1360	40.982
1364	4.66485
1368	-16.9155
1372	19.8251
1376	31.9697
1380	43.7473
1384	-1.97828
1388	1.72186
1392	29.556
1396	23.4319
1400	5.98008
1404	3.40583
1408	16.695
1412	17.3729
1416	12.7623
1420	-13.7082
1424	4.01168
1428	40.1527
1432	30.5184
1436	-22.3492
1440	0.0205536
1444	27.5248
1448	9.08742
1452	10.4744
1456	37.133
1460	25.3713
1464	23.1116
1468	7.18171
1472	-3.06271
1476	18.5386
1480	3.68117
1484	32.8487
1488	7.66606
1492	-3.77087
1496	28.9587
1500	3.74076
1504	7.751
1508	20.6783
1512	2.44938
1516	-9.72389
1520	38.4727
1524	4.71537
1528	9.35202
1532	-5.72528
1536	7.13685
1540	-1.89231
1544	1.94887
1548	16.8068
1552	48.5964
1556	-19.4548
1560	-0.411067
1564	-15.1721
1568	-11.5176
1572	9.20047
1576	197.524
1580	389.815
1584	414.768
1588	182.326
1592	8.98371
1596	-22.3169
1600	-10.3344
1604	21.8683
1608	-7.58447
1612	-4.45528
1616	46.1185
1620	25.1053
1624	6.36027
1628	3.5981
1632	-4.93111
1636	24.5399
1640	15.7835
1644	6.89692
1648	-7.54565
