Raman shift (cm-1)	intensity
320	10.7795
324	-11.0386
328	35.4151
332	11.2976
336	27.7044
340	49.5892
344	28.8357
348	9.00758
352	74.4033
356	15.3997
360	-12.7979
364	1.32237
368	10.5217
372	-1.47429
376	4.33643
380	-20.7285
384	2.97254
388	0.394592
392	2.56844
396	-7.08989
400	-8.89216
404	8.18382
408	27.1398
412	14.2492
416	97.8882
420	129.801
424	142.102
428	108.733
432	29.4222
436	50.3266
440	5.21366
444	-9.22122
448	7.2539
452	31.5709
456	59.5928
460	9.37132
464	-3.61744
468	0.572719
472	-3.17044
476	22.6424
480	-6.45898
484	18.4625
488	41.9158
492	12.6919
496	-23.9828
500	-9.08072
504	2.47677
508	16.6946
512	98.4249
516	173.666
520	153.927
524	143.217
528	24.804
532	-7.01135
536	-0.122477
540	8.37013
544	3.51745
548	37.7788
552	12.9567
556	18.3142
560	-12.2352
564	-4.03008
568	-1.11819
572	45.8542
576	-8.22868
580	2.95249
584	-0.867428
588	3.5535
592	16.0351
596	14.9911
600	18.6704
604	23.7934
608	-10.1888
612	20.2191
616	-4.36843
620	3.04412
624	34.0963
628	-14.4768
632	45.0919
636	1.13518
640	13.4401
644	25.9518
648	14.687
652	3.42092
656	-3.2419
660	0.6159
664	6.05002
668	0.536726
672	22.5472
676	5.1943
680	29.7677
684	-3.88115
688	-1.13859
692	33.4323
696	21.1364
700	15.4162
704	9.2824
708	14.8832
712	38.1116
716	32.7962
720	34.5046
724	-1.88222
728	0.151335
732	5.21032
736	-22.5539
740	28.5786
744	0.946955
748	5.05173
752	39.3477
756	5.19486
760	-12.5459
764	-4.97335
768	8.18464
772	38.8256
776	3.02112
780	6.52381
784	2.56916
788	20.3877
792	35.0133
796	21.765
800	13.3076
804	26.7555
808	6.74823
812	41.7984
816	-0.414754
820	1.45291
824	-10.2055
828	3.98421
832	13.1586
836	-4.8993
840	33.7292
844	33.4506
848	-6.96255
852	9.49004
856	18.0108
860	-4.99148
864	14.3008
868	47.4534
872	0.473693
876	-8.26752
880	23.2063
884	33.6738
888	-5.62605
892	-4.53579
896	32.8003
900	51.8376
904	-7.00921
908	63.9939
912	-6.40738
916	43.2443
920	1.82948
924	9.66856
928	4.61135
932	52.5194
936	-4.21476
940	30.8341
944	-19.4316
948	11.4196
952	44.4888
956	-8.24347
960	14.345
964	-5.02701
968	7.02725
972	-4.45472
976	28.1212
980	3.53117
984	0.46159
988	45.6002
992	11.8451
996	12.508
1000	28.017
1004	42.228
1008	1.53847
1012	34.3523
1016	43.7226
1020	28.2644
1024	-2.12879
1028	-8.02734
1032	28.3049
1036	8.70713
1040	21.4109
1044	29.3635
1048	-4.08199
1052	-20.2524
1056	-19.3941
1060	-6.64613
1064	-33.8613
1068	40.0368
1072	232.565
1076	542.265
1080	579.824
1084	303.029
1088	10.7583
1092	-9.58533
1096	-17.9652
1100	-21.3418
1104	-6.09141
1108	-5.82853
1112	-1.16512
1116	10.1839
1120	20.9784
1124	-0.512863
1128	-6.40354
1132	42.4019
1136	4.93248
1140	32.2139
1144	35.5611
1148	3.38626
1152	-2.09448
1156	26.7518
1160	11.5222
1164	2.782
1168	-14.173
1172	36.6952
1176	13.8546
1180	29.119
1184	44.1537
1188	-13.6554
1192	4.35313
1196	8.24608
1200	25.3957
1204	31.1316
1208	18.7867
1212	25.0002
1216	28.3315
1220	-8.69715
1224	19.896
1228	-1.28925
1232	-21.927
1236	0.976032
1240	24.0388
1244	10.168
1248	28.8668
1252	19.2294
1256	14.6943
1260	46.9136
1264	67.1462
1268	56.829
1272	-12.8503
1276	2.3044
1280	55.2445
1284	-1.25876
1288	-8.15593
1292	33.773
1296	2.34513
1300	-7.6057
1304	31.4523
1308	-10.9398
1312	19.8895
1316	-16.2278
1320	14.3603
1324	36.5177
1328	41.4575
1332	-12.6898
1336	21.2158
1340	4.10431
1344	-6.17158
1348	18.9859
1352	16.4797
1356	17.715
1360	11.9537
1364	5.48267
1368	22.7903
1372	-8.02236
1376	15.6835
1380	-0.61386
1384	50.4587
1388	-2.06668
1392	7.40573
1396	20.7298
1400	25.7248
1404	25.3453
1408	23.1057
1412	-4.79951
1416	33.5768
1420	28.1347
1424	31.0362
1428	0.808515
1432	-5.88646
1436	1.68926
1440	51.6971
1444	-14.0429
1448	16.2398
1452	1.76884
1456	24.9268
1460	1.97781
1464	21.143
1468	4.98627
1472	49.3918
1476	11.2732
1480	58.1379
1484	14.8724
1488	-5.87193
1492	20.3189
1496	6.45653
1500	22.8967
1504	3.29037
1508	-1.48117
1512	32.9606
1516	1.06044
1520	-7.50803
1524	-2.96771
1528	-4.45711
1532	45.569
1536	1.2336
1540	7.70577
1544	-4.28715
1548	-5.83169
1552	37.7485
1556	-26.0321
1560	15.0604
1564	-45.9382
1568	0.415889
1572	35.8189
1576	240.073
1580	486.871
1584	519.181
1588	294.595
1592	28.4301
1596	-8.12785
1600	-13.9587
1604	-3.14837
1608	-17.5693
1612	55.5285
1616	9.42339
1620	-4.61308
1624	26.2002
1628	-10.5556
1632	39.8872
1636	56.1674
1640	49.4924
1644	-14.3383
1648	17.7579
