Raman shift (cm-1)	intensity
320	-11.4704
324	21.0982
328	33.6126
332	2.11618
336	28.6229
340	6.5012
344	67.8632
348	9.7147
352	-0.0375961
356	4.53274
360	1.2572
364	11.202
368	3.13928
372	-12.1363
376	2.54238
380	-8.5672
384	20.5899
388	-6.1806
392	-2.83697
396	7.27196
400	-1.67378
404	-13.1087
408	38.7059
412	17.6088
416	72.6245
420	121.32
424	135.63
428	140.806
432	32.3248
436	26.9137
440	0.224297
444	-9.38801
448	37.8146
452	29.5264
456	12.2935
460	25.1185
464	20.688
468	-17.2893
472	-1.27472
476	-3.90673
480	14.8227
484	3.11709
488	18.0461
492	6.93447
496	-20.4181
500	-0.202242
504	-14.4327
508	49.2829
512	40.8059
516	151.027
520	161.604
524	142.089
528	83.1592
532	-2.18736
536	6.80937
540	2.67419
544	26.9436
548	30.2885
552	21.3688
556	14.8213
560	4.19014
564	17.106
568	-13.7336
572	1.88674
576	30.172
580	-7.53168
584	-5.55982
588	-2.36621
592	36.2427
596	53.4445
600	70.7542
604	32.315
608	4.01967
612	28.0526
616	-1.49878
620	-0.619938
624	26.1594
628	-5.69853
632	37.9057
636	29.9291
640	10.3444
644	14.9966
648	42.2196
652	47.7613
656	-7.04586
660	2.01016
664	2.94946
668	5.48123
672	49.7536
676	5.81031
680	-5.38166
684	9.61651
688	0.127428
692	35.4543
696	-1.60526
700	37.5658
704	6.15332
708	-3.59557
712	35.612
716	-15.5618
720	5.0601
724	10.2891
728	15.5555
732	5.65311
736	-6.32355
740	5.29142
744	-0.514639
748	13.7126
752	24.2195
756	33.308
760	-9.32641
764	-3.75682
768	8.14345
772	36.7575
776	18.6889
780	-2.36237
784	1.22719
788	24.2068
792	26.8468
796	33.1318
800	19.3783
804	4.13959
808	18.488
812	43.9188
816	30.469
820	14.1394
824	-12.9347
828	21.7272
832	26.7451
836	25.5608
840	4.55509
844	35.0683
848	16.0464
852	7.26521
856	25.3115
860	-3.21066
864	45.7059
868	-3.96523
872	7.22273
876	-6.16095
880	17.3124
884	7.79326
888	15.6872
892	14.5596
896	27.7982
900	14.5776
904	1.97058
908	52.7255
912	0.610913
916	38.5708
920	15.7602
924	16.6837
928	32.1082
932	13.6247
936	6.6354
940	18.5944
944	7.77201
948	14.9343
952	19.9618
956	5.82495
960	53.5328
964	14.5614
968	3.59725
972	-7.57544
976	24.6312
980	32.0092
984	3.21896
988	16.8921
992	20.0202
996	47.9929
1000	27.4862
1004	1.56569
1008	-2.9095
1012	37.203
1016	7.25047
1020	48.0128
1024	-4.32915
1028	-1.68159
1032	0.229331
1036	0.541652
1040	12.3913
1044	15.8779
1048	5.65388
1052	-35.3334
1056	11.0643
1060	-15.392
1064	-50.6181
1068	29.5584
1072	266.639
1076	572.473
1080	571.488
1084	337.581
1088	36.2773
1092	-35.1723
1096	-7.12276
1100	-28.1985
1104	8.6402
1108	6.07737
1112	10.4391
1116	6.71841
1120	23.0543
1124	8.32485
1128	-5.1648
1132	63.2337
1136	47.7703
1140	3.41922
1144	63.7808
1148	-12.2663
1152	23.9854
1156	10.2697
1160	12.659
1164	-2.65961
1168	-9.62502
1172	11.9706
1176	32.3578
1180	63.928
1184	18.9495
1188	16.7575
1192	-1.7487
1196	-8.74386
1200	-0.432948
1204	10.0725
1208	9.90563
1212	27.5729
1216	6.49212
1220	-3.50776
1224	28.6056
1228	17.6701
1232	-14.4369
1236	3.6481
1240	10.4127
1244	25.096
1248	40.4604
1252	16.5262
1256	45.4122
1260	39.9217
1264	16.3649
1268	55.2038
1272	17.9277
1276	-15.0281
1280	38.2811
1284	-3.53492
1288	20.8367
1292	6.57396
1296	3.36305
1300	26.3826
1304	-6.09793
1308	11.0263
1312	-7.02728
1316	21.4008
1320	25.2815
1324	19.8841
1328	0.180495
1332	-2.36258
1336	-2.02524
1340	16.7092
1344	41.6983
1348	0.423237
1352	19.7005
1356	9.049
1360	25.1945
1364	-3.80822
1368	4.31961
1372	16.3192
1376	15.8692
1380	11.3436
1384	20.3537
1388	21.3645
1392	3.04075
1396	20.104
1400	-6.08017
1404	48.2663
1408	30.5166
1412	4.66629
1416	-8.9707
1420	-0.477789
1424	32.2932
1428	-11.945
1432	1.44174
1436	-9.27056
1440	52.7092
1444	35.6889
1448	-8.46305
1452	11.2617
1456	10.3924
1460	-5.90514
1464	-3.00489
1468	67.2694
1472	-6.1029
1476	40.2005
1480	61.6118
1484	15.9595
1488	4.58774
1492	1.27513
1496	-4.54293
1500	41.7156
1504	-14.7515
1508	-6.1478
1512	43.4207
1516	9.27641
1520	4.945
1524	-7.56424
1528	-1.8832
1532	36.6814
1536	41.6011
1540	-16.7389
1544	1.20935
1548	-10.7815
1552	42.1335
1556	13.7577
1560	-30.3964
1564	-0.937767
1568	-47.9865
1572	39.4644
1576	273.329
1580	490.418
1584	545.475
1588	321.389
1592	28.5982
1596	-27.5041
1600	-13.5968
1604	9.40291
1608	13.6834
1612	-16.0063
1616	33.3215
1620	38.6589
1624	4.22139
1628	31.1556
1632	-5.77396
1636	-0.40894
1640	1.26057
1644	11.8773
1648	12.8592
