Raman shift (cm-1)	intensity
320	-17.6166
324	12.0558
328	-9.55949
332	41.6947
336	31.7429
340	1.79844
344	34.9059
348	7.0661
352	0.613054
356	13.5722
360	4.96323
364	3.956
368	12.4828
372	-5.67429
376	29.5449
380	51.4377
384	-5.8537
388	-15.819
392	-1.59103
396	1.93984
400	-12.067
404	15.1051
408	22.8204
412	57.1637
416	40.3616
420	91.2682
424	107.073
428	57.8034
432	63.2994
436	39.5203
440	-4.86582
444	-9.13277
448	8.52442
452	18.1673
456	45.324
460	22.2893
464	12.8541
468	-5.91619
472	-7.62688
476	2.51058
480	1.64255
484	37.2533
488	35.9597
492	-8.61135
496	-3.53949
500	0.898576
504	-7.1792
508	4.47283
512	30.3978
516	110.11
520	85.3908
524	53.6437
528	67.8102
532	2.33935
536	-2.46997
540	19.7263
544	67.1136
548	42.3582
552	18.7035
556	-2.84771
560	-6.13329
564	-2.75728
568	-2.03706
572	2.58585
576	-10.6521
580	16.9046
584	-0.390075
588	-0.126171
592	31.2499
596	23.1187
600	7.79791
604	25.9808
608	0.440493
612	-1.76303
616	19.4004
620	31.7702
624	6.12698
628	-1.92748
632	-6.2255
636	2.13653
640	-3.02687
644	5.27133
648	41.724
652	27.9339
656	21.6683
660	6.4087
664	10.2338
668	0.839576
672	-3.90065
676	-6.59594
680	5.95019
684	33.9458
688	0.405932
692	50.1891
696	24.2608
700	-1.34482
704	26.6618
708	29.4604
712	12.2147
716	8.91826
720	32.9103
724	20.1695
728	-7.85808
732	10.2865
736	1.02518
740	-11.2195
744	11.8589
748	3.35551
752	14.3928
756	3.43886
760	-2.04495
764	19.4063
768	-7.0939
772	25.2684
776	4.46386
780	9.28684
784	40.7297
788	63.0371
792	19.7055
796	-9.57259
800	55.7014
804	76.6521
808	-9.15142
812	17.4686
816	15.8446
820	32.9919
824	-4.94439
828	-12.254
832	17.6505
836	7.53422
840	23.9966
844	1.95249
848	-0.808053
852	-6.21713
856	34.7367
860	17.6226
864	-5.95096
868	23.1946
872	10.9997
876	25.0015
880	19.1901
884	9.45548
888	25.4436
892	-8.86323
896	2.61055
900	49.8614
904	50.6322
908	15.6465
912	-9.36517
916	23.7243
920	9.95422
924	19.7142
928	34.8506
932	14.2718
936	13.4123
940	29.7806
944	-4.63681
948	-3.01209
952	40.8884
956	18.9361
960	-1.38024
964	5.11494
968	-12.7351
972	8.32377
976	30.8346
980	-13.3832
984	10.857
988	13.6541
992	0.628896
996	40.3182
1000	112.859
1004	52.0717
1008	-7.61406
1012	0.246404
1016	8.73012
1020	62.3001
1024	88.6787
1028	21.3348
1032	0.767595
1036	8.91848
1040	-3.21865
1044	1.52722
1048	7.0533
1052	-9.27286
1056	-22.9271
1060	12.1946
1064	-27.1862
1068	71.6796
1072	313.195
1076	405.937
1080	335.681
1084	101.721
1088	-9.35246
1092	-5.56131
1096	-26.0761
1100	1.81275
1104	-7.40781
1108	46.7081
1112	-10.0297
1116	29.2989
1120	-3.69346
1124	2.62984
1128	9.21925
1132	13.481
1136	1.52356
1140	-2.12394
1144	19.8586
1148	4.15018
1152	7.93705
1156	28.229
1160	-1.11611
1164	23.7452
1168	3.80889
1172	-1.47002
1176	25.67
1180	14.2366
1184	51.8052
1188	-7.35176
1192	-1.22076
1196	14.2207
1200	4.80943
1204	17.2182
1208	30.4397
1212	31.6366
1216	7.63273
1220	-1.93263
1224	23.9354
1228	16.0293
1232	-17.9548
1236	5.99261
1240	15.0546
1244	33.3577
1248	27.468
1252	17.4724
1256	50.6807
1260	41.0056
1264	-9.10526
1268	50.2801
1272	38.2644
1276	-2.71581
1280	19.898
1284	6.07063
1288	9.693
1292	0.98961
1296	17.2097
1300	17.3413
1304	-6.94277
1308	-11.373
1312	21.4782
1316	4.74538
1320	13.4671
1324	10.2252
1328	12.2587
1332	-10.2661
1336	27.8379
1340	-1.8962
1344	-0.438913
1348	11.6903
1352	12.3334
1356	9.51569
1360	18.9652
1364	-0.00747501
1368	-0.760443
1372	44.977
1376	12.2327
1380	3.52226
1384	46.7237
1388	36.0454
1392	18.7378
1396	9.92754
1400	23.1392
1404	-3.25359
1408	-4.27587
1412	35.1708
1416	19.0648
1420	24.1064
1424	-2.39477
1428	6.25688
1432	-12.8305
1436	5.38238
1440	10.7502
1444	19.9708
1448	8.97319
1452	37.7788
1456	-0.137794
1460	-18.8503
1464	24.1992
1468	13.8042
1472	42.6833
1476	-9.43285
1480	45.4059
1484	14.4415
1488	5.56227
1492	11.5984
1496	7.28377
1500	-6.3978
1504	30.0012
1508	5.61019
1512	-2.12882
1516	46.343
1520	5.65338
1524	-2.40252
1528	37.5033
1532	0.674336
1536	47.4361
1540	-2.1714
1544	-21.0387
1548	21.2096
1552	43.0703
1556	-2.03313
1560	1.88306
1564	-10.0367
1568	-14.0794
1572	27.3269
1576	99.9515
1580	178.563
1584	200.87
1588	97.7404
1592	-6.28961
1596	15.4408
1600	-2.96315
1604	16.0308
1608	-9.97628
1612	3.95295
1616	12.4177
1620	74.0537
1624	2.14327
1628	23.9848
1632	19.0953
1636	5.7859
1640	-7.07511
1644	10.9826
1648	-13.6175
