Raman shift (cm-1)	intensity
320	-9.61659
324	31.0739
328	1.0191
332	10.2783
336	-0.492073
340	35.9988
344	39.5763
348	18.2529
352	41.4923
356	-3.74501
360	-7.49016
364	29.3218
368	5.65043
372	-5.85034
376	34.2681
380	37.3856
384	27.4455
388	-12.1613
392	-1.1902
396	-8.17378
400	-16.2799
404	11.3489
408	27.5442
412	114.289
416	154.999
420	198.585
424	207.781
428	203.032
432	126.792
436	50.2471
440	-24.02
444	27.151
448	34.4593
452	45.0394
456	36.6586
460	-0.183613
464	-3.86154
468	-4.428
472	-2.53788
476	-11.2684
480	13.8938
484	12.9069
488	36.1963
492	4.36834
496	-3.40979
500	-1.67745
504	-10.4203
508	49.0666
512	87.5027
516	129.293
520	163.474
524	100.619
528	23.2502
532	16.1304
536	32.3465
540	-1.61329
544	23.341
548	31.2481
552	31.1705
556	6.32258
560	-16.2623
564	38.5072
568	-9.99784
572	3.18581
576	9.27283
580	28.5907
584	42.1818
588	-21.7514
592	40.6982
596	11.0698
600	39.0496
604	5.58027
608	7.71395
612	7.45117
616	33.4587
620	-0.0237456
624	19.5335
628	-8.53598
632	23.4127
636	6.03427
640	23.0927
644	33.8329
648	37.859
652	22.7809
656	-4.12128
660	21.1404
664	-15.685
668	27.3607
672	1.21898
676	1.65229
680	9.67936
684	-10.9409
688	30.2989
692	20.5255
696	0.293258
700	16.0735
704	23.0971
708	-0.507006
712	12.8599
716	4.18088
720	8.29663
724	0.892269
728	3.02819
732	14.0492
736	0.16572
740	-4.52333
744	9.31157
748	-1.50232
752	33.3
756	33.6279
760	4.48148
764	-10.0548
768	67.1828
772	7.07517
776	-1.87202
780	45.8637
784	10.7578
788	20.1097
792	8.74503
796	9.51498
800	-0.198965
804	26.7425
808	-4.3574
812	25.7296
816	9.31842
820	34.0737
824	27.5361
828	19.5303
832	-17.5302
836	42.1594
840	4.30939
844	8.8942
848	5.31068
852	-8.01204
856	36.199
860	46.1288
864	-6.44093
868	8.69377
872	5.90869
876	11.7884
880	55.7887
884	37.5883
888	15.9587
892	-4.47065
896	-3.43127
900	3.73364
904	66.9245
908	3.39191
912	5.22618
916	20.0508
920	-2.2412
924	45.5605
928	3.50404
932	38.2906
936	1.07559
940	-10.2212
944	45.0948
948	18.6321
952	5.4553
956	47.6238
960	-12.4551
964	8.01159
968	41.7418
972	-4.38215
976	-3.88629
980	26.4641
984	4.11491
988	-6.83914
992	37.8621
996	65.7556
1000	40.0832
1004	34.0741
1008	-8.81241
1012	18.8043
1016	-2.64857
1020	18.8914
1024	30.0928
1028	-9.56807
1032	-1.0343
1036	32.495
1040	-2.4282
1044	-0.531829
1048	-0.360943
1052	-17.9782
1056	-0.156408
1060	-5.90107
1064	-11.1805
1068	37.5028
1072	215.507
1076	344.964
1080	319.776
1084	191.173
1088	36.9266
1092	-27.2787
1096	-2.42835
1100	-1.10398
1104	-18.0228
1108	5.37789
1112	37.5747
1116	17.52
1120	14.3109
1124	4.97642
1128	-11.857
1132	43.9844
1136	18.8641
1140	-1.14665
1144	14.4806
1148	35.638
1152	-10.6053
1156	11.2612
1160	-6.62702
1164	21.4445
1168	21.7806
1172	4.29655
1176	-2.61722
1180	13.7206
1184	8.92304
1188	-5.15378
1192	-2.03803
1196	28.0788
1200	-10.3248
1204	35.0067
1208	45.3403
1212	31.961
1216	5.81133
1220	-10.963
1224	5.94226
1228	-10.1908
1232	3.35274
1236	1.25813
1240	-1.31525
1244	11.3923
1248	14.5445
1252	54.5867
1256	21.2876
1260	51.0333
1264	50.5869
1268	75.7826
1272	6.78082
1276	5.1449
1280	46.3026
1284	-9.01935
1288	5.97075
1292	7.62103
1296	1.77401
1300	5.02668
1304	14.5202
1308	-1.5292
1312	-1.32965
1316	4.11158
1320	23.5251
1324	8.9389
1328	16.2859
1332	-6.60585
1336	17.3097
1340	17.0071
1344	-10.4117
1348	7.38779
1352	39.5786
1356	36.7248
1360	20.1364
1364	-10.0225
1368	-3.35006
1372	15.3012
1376	7.15269
1380	-5.64481
1384	22.7038
1388	5.66422
1392	28.4854
1396	27.7827
1400	-18.7565
1404	40.6563
1408	38.4258
1412	-4.52482
1416	32.2629
1420	22.6362
1424	-6.35488
1428	5.28094
1432	37.2478
1436	6.50908
1440	1.95772
1444	34.36
1448	18.4584
1452	9.51354
1456	20.0097
1460	8.56787
1464	-0.626016
1468	54.5113
1472	7.82156
1476	28.1353
1480	-10.6535
1484	39.8906
1488	24.4924
1492	-14.6648
1496	23.4465
1500	23.3579
1504	5.76074
1508	9.11189
1512	-5.12806
1516	5.76217
1520	37.3371
1524	45.6607
1528	-3.52051
1532	-4.77649
1536	15.0169
1540	20.309
1544	4.80836
1548	31.6029
1552	-15.2093
1556	2.7798
1560	-4.25199
1564	19.6172
1568	-30.9224
1572	13.6833
1576	62.7078
1580	218.138
1584	232.704
1588	89.4992
1592	9.293
1596	-12.9705
1600	-6.45615
1604	-15.7136
1608	17.651
1612	12.7359
1616	-0.79706
1620	40.2718
1624	-4.44351
1628	34.616
1632	13.1572
1636	14.9941
1640	36.5861
1644	-21.8436
1648	5.86171
