Raman shift (cm-1)	intensity
320	-1.76665
324	22.4695
328	45.7788
332	-5.6392
336	9.86418
340	14.0771
344	55.1778
348	-10.7078
352	23.6148
356	40.9016
360	-3.73295
364	1.09771
368	-17.3405
372	44.4579
376	12.5397
380	32.9066
384	2.41877
388	14.1002
392	-28.8312
396	-2.94018
400	6.7516
404	-13.9095
408	11.774
412	92.4981
416	165.286
420	192.291
424	238.368
428	204.736
432	147.487
436	11.6165
440	-3.03247
444	-13.7667
448	28.4689
452	58.6389
456	23.1375
460	42.218
464	-0.375084
468	-11.8587
472	-4.75831
476	0.133254
480	-2.07272
484	32.1942
488	13.1027
492	6.83084
496	-0.408469
500	-24.06
504	4.19749
508	35.085
512	46.0166
516	148.863
520	142.503
524	118.291
528	40.3071
532	21.1404
536	-2.55417
540	11.9663
544	33.3435
548	-0.315139
552	37.0835
556	9.97888
560	24.039
564	-11.4845
568	22.535
572	-3.76172
576	-14.7585
580	2.765
584	17.5117
588	4.9514
592	12.5577
596	25.8709
600	-6.65326
604	-8.7718
608	41.9476
612	-7.18203
616	13.2487
620	-9.11344
624	31.9573
628	0.0456914
632	4.02883
636	0.293638
640	6.00765
644	41.0533
648	-0.486056
652	6.65206
656	2.24458
660	-0.965602
664	26.7614
668	32.9279
672	2.30232
676	16.5709
680	-2.75952
684	20.8137
688	-4.9259
692	37.0746
696	6.95428
700	-5.72968
704	52.2162
708	-2.02423
712	30.2541
716	22.2635
720	-14.6908
724	37.2314
728	7.0282
732	8.48407
736	24.832
740	-11.2428
744	0.692868
748	8.50316
752	5.74907
756	6.14913
760	21.9743
764	1.98268
768	-2.15873
772	60.1058
776	31.0914
780	-3.90446
784	18.4995
788	11.6594
792	9.6434
796	37.8632
800	1.49876
804	45.0727
808	-4.78024
812	10.6698
816	-2.61354
820	1.28911
824	-0.29365
828	14.3401
832	2.1775
836	21.0864
840	-3.01288
844	30.2949
848	25.8758
852	-1.62464
856	18.2633
860	-4.8863
864	5.58091
868	13.8073
872	-16.0079
876	52.9329
880	-15.2952
884	6.13204
888	39.8437
892	4.45051
896	20.1452
900	39.2882
904	-6.0412
908	12.5207
912	4.78517
916	26.9985
920	12.6578
924	27.3366
928	7.09571
932	18.1433
936	2.36936
940	-5.40329
944	-4.59233
948	15.4346
952	18.0232
956	1.86652
960	57.6981
964	2.19951
968	-5.38429
972	0.761192
976	-10.1279
980	1.21091
984	12.5858
988	0.242954
992	16.5801
996	22.5739
1000	-4.01677
1004	8.56698
1008	3.52656
1012	12.4505
1016	22.782
1020	41.9718
1024	20.7932
1028	12.6086
1032	-17.1315
1036	29.6743
1040	45.7594
1044	22.1184
1048	-8.53201
1052	-0.882385
1056	-18.4582
1060	-18.58
1064	-7.40985
1068	23.8134
1072	254.816
1076	432.066
1080	415.085
1084	192.366
1088	16.8085
1092	-22.6176
1096	-11.2473
1100	-14.3144
1104	-8.63221
1108	6.91741
1112	-11.1239
1116	36.1738
1120	5.48592
1124	2.86693
1128	-9.59884
1132	34.7548
1136	13.8162
1140	66.5389
1144	0.719876
1148	19.546
1152	9.84909
1156	12.8603
1160	0.501979
1164	-1.60457
1168	-12.4966
1172	18.1535
1176	10.2614
1180	65.8189
1184	27.5646
1188	8.95108
1192	-7.33531
1196	3.71331
1200	29.6899
1204	65.0081
1208	33.8972
1212	18.9905
1216	-5.31063
1220	33.3702
1224	-3.25191
1228	-0.475409
1232	-9.91519
1236	-4.68939
1240	1.57641
1244	38.4132
1248	6.57106
1252	36.0432
1256	55.0711
1260	81.4548
1264	90.0775
1268	69.4143
1272	53.5483
1276	14.2537
1280	63.0544
1284	-14.557
1288	26.3751
1292	4.46991
1296	-6.81246
1300	8.74682
1304	9.80614
1308	11.7274
1312	-13.687
1316	11.7268
1320	-5.16108
1324	9.73976
1328	21.5962
1332	5.43
1336	20.2929
1340	-13.5403
1344	22.3723
1348	6.40035
1352	15.1303
1356	-1.49224
1360	62.1383
1364	-9.83634
1368	13.1664
1372	-10.5371
1376	26.8082
1380	10.657
1384	24.8569
1388	-12.3302
1392	41.0725
1396	0.689903
1400	43.9475
1404	31.7253
1408	-0.754908
1412	27.3095
1416	63.2651
1420	-7.55609
1424	43.6131
1428	-4.63121
1432	19.2439
1436	-1.1959
1440	28.9268
1444	-4.59853
1448	-3.39152
1452	36.8096
1456	-0.364072
1460	21.3076
1464	28.7951
1468	9.08401
1472	12.8128
1476	18.0775
1480	15.865
1484	15.9469
1488	9.37602
1492	-1.39718
1496	37.7622
1500	24.4103
1504	-3.11222
1508	-7.58902
1512	16.7753
1516	20.4313
1520	-0.332199
1524	6.2084
1528	9.19734
1532	-1.30613
1536	8.92528
1540	6.33899
1544	-1.74368
1548	-4.41575
1552	42.6346
1556	-5.01952
1560	-4.53158
1564	-43.6595
1568	0.487418
1572	12.8581
1576	105.74
1580	350.907
1584	411.957
1588	179.015
1592	19.4826
1596	-25.2139
1600	-22.4945
1604	5.84346
1608	10.705
1612	-19.6198
1616	48.8489
1620	1.10183
1624	2.28709
1628	11.7961
1632	8.66477
1636	23.1776
1640	43.3161
1644	6.26515
1648	-3.41034
