Raman shift (cm-1)	intensity
320	-1.02924
324	-10.1399
328	-0.806133
332	2.09591
336	0.513408
340	26.5656
344	17.2668
348	55.1303
352	9.69199
356	17.25
360	32.087
364	34.8687
368	9.57272
372	-4.1434
376	26.1774
380	15.9026
384	-1.18242
388	3.56185
392	-5.38873
396	0.972144
400	-10.4344
404	-19.6474
408	6.75246
412	37.6627
416	42.5106
420	141.025
424	144.002
428	107.199
432	62.5139
436	15.9948
440	-5.66244
444	-6.66925
448	53.4709
452	13.5343
456	-1.3946
460	0.453904
464	18.3332
468	-8.55809
472	6.10603
476	-3.36757
480	-6.11986
484	32.569
488	-9.28069
492	8.90033
496	-3.0164
500	-1.17635
504	-9.04139
508	14.4373
512	61.8395
516	95.0639
520	110.811
524	50.0522
528	31.5276
532	-0.535221
536	18.4393
540	38.1402
544	3.93806
548	27.6693
552	33.34
556	12.9246
560	-5.45667
564	3.21498
568	-3.9507
572	-4.90759
576	3.32427
580	-3.67128
584	-3.58427
588	-1.26685
592	13.2726
596	4.51202
600	42.0483
604	-2.57083
608	7.68257
612	-1.20707
616	-1.21769
620	23.5869
624	-5.44187
628	24.8342
632	39.669
636	-1.13785
640	5.744
644	-3.02312
648	18.65
652	0.855853
656	41.8014
660	2.61367
664	4.69395
668	22.9888
672	43.8117
676	-6.5778
680	-5.72751
684	16.314
688	8.87184
692	20.0006
696	1.98539
700	-5.53669
704	27.629
708	0.21488
712	33.4523
716	17.2536
720	13.3672
724	9.34409
728	-17.4279
732	16.6993
736	29.5999
740	10.6341
744	17.3466
748	5.1313
752	18.948
756	-4.48692
760	9.15006
764	12.7771
768	3.42354
772	20.1996
776	0.0867465
780	6.63664
784	3.59329
788	24.4235
792	3.06239
796	16.5322
800	23.2727
804	18.3568
808	5.49188
812	-5.50342
816	17.538
820	30.4309
824	-11.6025
828	-7.15113
832	11.434
836	3.31879
840	-2.23564
844	22.5093
848	26.5873
852	20.5778
856	3.90695
860	16.2281
864	-4.7699
868	12.2431
872	-3.8033
876	21.2775
880	17.0934
884	25.5385
888	-5.48961
892	1.17964
896	15.0871
900	6.54236
904	8.62626
908	13.8546
912	25.0073
916	8.33807
920	4.99938
924	18.1463
928	38.1258
932	4.76456
936	6.39021
940	26.7371
944	6.43647
948	20.8701
952	25.2601
956	15.5384
960	6.5759
964	-4.1271
968	11.091
972	-1.04217
976	13.8921
980	0.891542
984	-11.6882
988	24.5076
992	43.6942
996	16.2581
1000	2.51531
1004	12.954
1008	-0.958702
1012	28.7513
1016	22.3643
1020	10.8301
1024	24.55
1028	19.0075
1032	2.65692
1036	-6.08445
1040	3.66621
1044	-16.9398
1048	36.9505
1052	-21.0873
1056	-24.5566
1060	-6.98993
1064	13.2161
1068	60.3172
1072	192.406
1076	288.396
1080	247.362
1084	117.624
1088	24.1081
1092	-10.4247
1096	-10.6283
1100	-1.01182
1104	-6.02107
1108	-11.6151
1112	27.1725
1116	7.32228
1120	14.7585
1124	-11.9521
1128	20.0272
1132	40.9365
1136	33.5612
1140	21.3244
1144	22.7037
1148	-11.9602
1152	24.4991
1156	5.10212
1160	39.9814
1164	-27.9594
1168	36.8376
1172	2.95795
1176	32.6535
1180	43.6679
1184	19.8034
1188	-1.07099
1192	5.46218
1196	8.33484
1200	34.3389
1204	11.794
1208	38.9392
1212	34.894
1216	-9.20861
1220	2.29823
1224	4.88757
1228	-5.59775
1232	12.5887
1236	22.1244
1240	-4.8334
1244	0.587863
1248	25.292
1252	23.908
1256	20.5663
1260	8.66335
1264	38.2339
1268	10.8285
1272	25.6261
1276	29.6423
1280	-1.66664
1284	32.5538
1288	-4.32025
1292	18.9857
1296	7.37847
1300	-1.63997
1304	-5.45998
1308	2.75361
1312	25.1802
1316	9.04281
1320	-12.6832
1324	14.6772
1328	-0.50396
1332	18.9969
1336	0.943046
1340	-8.63667
1344	32.1712
1348	2.92445
1352	-4.27482
1356	28.4186
1360	20.684
1364	9.24344
1368	13.0901
1372	3.99987
1376	31.1131
1380	4.01207
1384	5.71699
1388	37.8324
1392	16.5452
1396	0.247505
1400	24.7636
1404	-1.07563
1408	40.3349
1412	16.2346
1416	36.9872
1420	0.897819
1424	21.374
1428	-14.8833
1432	6.69301
1436	38.9978
1440	-2.83655
1444	-0.458897
1448	5.75455
1452	11.1438
1456	5.56875
1460	13.803
1464	3.97911
1468	25.6417
1472	-13.3506
1476	38.6705
1480	40.2857
1484	10.9801
1488	24.862
1492	-2.10378
1496	3.27044
1500	-3.26579
1504	-1.44069
1508	53.678
1512	14.0076
1516	-3.77548
1520	16.7528
1524	-2.4067
1528	5.98368
1532	25.0463
1536	2.85806
1540	18.9685
1544	-5.97271
1548	27.3408
1552	17.6473
1556	-13.3543
1560	6.40516
1564	-23.6908
1568	21.432
1572	54.8397
1576	166.156
1580	237.651
1584	156.409
1588	38.5052
1592	-18.3035
1596	-16.2124
1600	-3.65508
1604	15.0051
1608	24.298
1612	-8.93859
1616	4.96712
1620	-7.91345
1624	20.2174
1628	19.1263
1632	18.4252
1636	40.8421
1640	-11.3457
1644	6.05444
1648	-7.29205
