Raman shift (cm-1)	intensity
320	-9.93934
324	29.2316
328	0.288073
332	19.3375
336	5.97009
340	-5.92639
344	21.0619
348	-8.9706
352	8.22474
356	11.0792
360	8.04018
364	3.05804
368	17.4009
372	-4.04289
376	3.59369
380	22.0954
384	-18.4771
388	5.40607
392	0.721032
396	-13.4523
400	-11.0973
404	23.072
408	109.09
412	176.015
416	167.795
420	112.299
424	64.6926
428	83.4932
432	51.9237
436	-7.75596
440	-1.12556
444	-12.5537
448	20.0158
452	44.1883
456	5.52048
460	15.6453
464	-1.21999
468	-3.46928
472	-9.94457
476	1.86249
480	-11.5941
484	41.3019
488	50.5388
492	6.97061
496	8.66537
500	-7.05645
504	20.5324
508	-1.07036
512	34.7334
516	92.1768
520	112.134
524	100.146
528	50.2099
532	8.13992
536	4.70784
540	29.2068
544	23.1809
548	22.3182
552	37.905
556	-3.06483
560	0.960179
564	14.7973
568	-7.94879
572	18.3273
576	0.291767
580	17.5501
584	12.9895
588	-10.3417
592	6.5906
596	20.427
600	4.88466
604	6.37414
608	1.72321
612	10.5442
616	10.942
620	-0.26177
624	11.2425
628	18.5416
632	18.9078
636	6.85943
640	9.9571
644	13.2499
648	13.8347
652	9.08807
656	7.89655
660	18.5834
664	-8.17789
668	-1.66127
672	7.09387
676	0.342218
680	24.3215
684	-4.26674
688	26.6105
692	48.0077
696	8.39294
700	4.44426
704	22.773
708	21.0271
712	43.7955
716	26.1862
720	-1.10566
724	15.8735
728	-8.99763
732	13.0394
736	-0.476661
740	-11.9363
744	23.8035
748	-5.47178
752	8.66546
756	11.343
760	-2.77292
764	25.0372
768	35.9671
772	47.9367
776	2.80658
780	-9.63855
784	66.1728
788	26.2429
792	0.998009
796	29.8473
800	-2.41867
804	35.8099
808	-3.7132
812	18.762
816	16.2804
820	-1.6666
824	46.542
828	-9.7304
832	-12.4558
836	38.3065
840	-0.211095
844	13.065
848	28.6947
852	1.36607
856	14.4707
860	7.54676
864	-2.44179
868	2.12663
872	14.4477
876	19.9111
880	-1.29614
884	4.56166
888	45.177
892	17.1522
896	-16.9847
900	20.1679
904	43.9752
908	0.68079
912	31.4176
916	-0.213588
920	-2.18926
924	19.2662
928	10.8684
932	17.9164
936	5.10887
940	26.615
944	12.7988
948	1.09241
952	3.48492
956	8.30895
960	37.9405
964	1.27184
968	8.06445
972	-16.79
976	1.35564
980	1.0385
984	30.5821
988	4.9165
992	-14.3249
996	35.5658
1000	140.547
1004	74.5961
1008	0.913609
1012	-10.4705
1016	3.83565
1020	49.9339
1024	58.357
1028	33.3398
1032	0.312348
1036	-5.42246
1040	21.7539
1044	-15.8988
1048	20.2099
1052	-17.7211
1056	-1.55295
1060	-19.5291
1064	4.44604
1068	58.9205
1072	280.4
1076	413.348
1080	427.716
1084	243.717
1088	43.3752
1092	-10.0988
1096	-25.7723
1100	-13.1691
1104	-12.4648
1108	6.47156
1112	40.2106
1116	-2.55003
1120	42.8493
1124	-13.054
1128	19.3029
1132	27.0148
1136	33.1829
1140	9.29055
1144	22.3279
1148	11.3662
1152	5.82606
1156	0.164805
1160	15.6657
1164	-12.842
1168	11.7466
1172	32.8816
1176	36.8442
1180	21.7772
1184	5.38387
1188	-3.3816
1192	-3.52435
1196	-13.2064
1200	12.705
1204	50.8867
1208	19.7087
1212	27.7816
1216	-12.7749
1220	16.8444
1224	2.91742
1228	3.58148
1232	10.4824
1236	-4.91064
1240	-0.500919
1244	29.3338
1248	12.6805
1252	39.314
1256	32.0163
1260	54.3326
1264	28.2981
1268	33.7935
1272	22.5094
1276	19.2393
1280	-1.79251
1284	5.67034
1288	8.26564
1292	1.29833
1296	0.573754
1300	22.8351
1304	34.1963
1308	-9.01127
1312	12.9477
1316	-4.26879
1320	19.2978
1324	1.0763
1328	0.806852
1332	12.6467
1336	2.43306
1340	-0.680162
1344	7.83422
1348	2.52581
1352	13.6149
1356	3.23298
1360	25.8673
1364	5.79677
1368	3.40405
1372	28.4508
1376	-1.62984
1380	12.9453
1384	-1.35601
1388	8.93624
1392	12.8206
1396	42.0118
1400	-12.6521
1404	-2.08364
1408	18.334
1412	7.80688
1416	2.59757
1420	-2.68712
1424	25.7593
1428	4.49466
1432	18.6762
1436	17.0188
1440	5.39999
1444	3.84197
1448	-6.1911
1452	4.91748
1456	24.881
1460	-3.19667
1464	-1.19443
1468	14.5136
1472	7.76043
1476	-5.27062
1480	32.3394
1484	26.8847
1488	-8.14655
1492	11.6188
1496	31.7329
1500	11.9721
1504	-10.7672
1508	-4.12251
1512	15.5422
1516	11.0485
1520	9.84665
1524	4.16326
1528	-2.47724
1532	23.6902
1536	2.18581
1540	-14.2062
1544	33.7816
1548	23.4703
1552	1.30867
1556	26.6569
1560	-26.1698
1564	-2.29941
1568	-0.660774
1572	7.96711
1576	42.2392
1580	198.062
1584	248.986
1588	108.85
1592	4.7916
1596	-22.2564
1600	11.6261
1604	-16.7673
1608	28.5146
1612	2.00045
1616	-6.14062
1620	37.0381
1624	20.7106
1628	15.2852
1632	0.13994
1636	19.8955
1640	26.1579
1644	14.3527
1648	-4.15506
