Raman shift (cm-1)	intensity
320	-0.720297
324	-10.1825
328	-4.90317
332	3.0539
336	-0.989056
340	20.3444
344	21.7611
348	32.4455
352	1.28796
356	86.2968
360	10.474
364	7.987
368	23.4706
372	23.765
376	21.0942
380	-19.653
384	-10.0878
388	-3.45108
392	-27.6563
396	-15.4373
400	-5.73317
404	-11.2268
408	21.2684
412	119.088
416	264.01
420	360.966
424	303.598
428	225.525
432	88.0749
436	76.1285
440	-10.2172
444	-1.47471
448	38.6599
452	14.0611
456	44.4763
460	-0.0884526
464	-10.4638
468	-36.646
472	13.0272
476	-33.151
480	10.3708
484	29.1988
488	22.3122
492	47.3706
496	-24.335
500	-8.67283
504	2.44863
508	12.8233
512	106.955
516	220.724
520	274.647
524	216.973
528	187.324
532	48.786
536	63.9349
540	32.0967
544	94.7519
548	121.99
552	60.8678
556	2.44473
560	-23.3372
564	0.149616
568	-18.6123
572	9.69068
576	-20.141
580	47.9649
584	26.1889
588	-9.7497
592	6.06977
596	-0.622867
600	19.8588
604	10.9275
608	-14.8802
612	6.54648
616	23.0707
620	14.3549
624	4.19379
628	3.75098
632	37.0319
636	0.808576
640	-1.52212
644	28.405
648	36.5674
652	5.28627
656	-16.7148
660	37.3045
664	5.0388
668	0.605942
672	-8.52317
676	7.32535
680	-1.94456
684	15.6448
688	15.0165
692	9.81391
696	4.2235
700	9.04155
704	-5.29756
708	18.3611
712	29.2061
716	6.94469
720	10.2661
724	6.23299
728	-1.16223
732	-10.4551
736	-3.18315
740	32.4147
744	-16.5127
748	30.1381
752	2.04207
756	3.07925
760	11.9934
764	0.85503
768	-5.32042
772	19.9532
776	46.5825
780	30.174
784	8.09453
788	9.09511
792	25.3777
796	6.42431
800	20.4235
804	0.351311
808	16.4501
812	9.46574
816	30.6151
820	13.494
824	-8.69965
828	25.7989
832	-4.35043
836	-4.23204
840	36.225
844	16.7163
848	15.8614
852	-16.5636
856	23.9767
860	31.9449
864	-5.81386
868	3.25432
872	42.4993
876	3.9273
880	34.8485
884	6.40941
888	2.31457
892	7.80204
896	24.711
900	24.9708
904	2.22118
908	22.4684
912	38.4173
916	11.6727
920	0.055277
924	26.0505
928	44.5417
932	22.2087
936	4.1652
940	54.0306
944	-18.1465
948	3.89267
952	11.3396
956	15.6678
960	35.1824
964	-1.04255
968	-3.12019
972	9.75357
976	-4.52138
980	27.9221
984	34.8344
988	-4.9577
992	16.3947
996	6.78812
1000	-4.59734
1004	0.473526
1008	9.57846
1012	-5.84841
1016	35.213
1020	14.4847
1024	1.36605
1028	20.0475
1032	12.5762
1036	-11.3061
1040	-2.76048
1044	17.8421
1048	1.05106
1052	-12.5856
1056	-10.6954
1060	-22.1832
1064	10.4421
1068	26.5572
1072	194.195
1076	343.31
1080	382.659
1084	178.069
1088	56.0544
1092	-36.3617
1096	-13.88
1100	-7.6722
1104	-0.834742
1108	15.3604
1112	-0.509179
1116	-3.05385
1120	-2.23001
1124	0.602895
1128	0.667258
1132	3.73347
1136	36.3457
1140	41.6898
1144	13.6931
1148	-5.71514
1152	17.5706
1156	14.0975
1160	-1.79331
1164	15.5146
1168	-22.5011
1172	48.2741
1176	36.7175
1180	30.6584
1184	20.4391
1188	-1.43328
1192	11.0829
1196	-20.6421
1200	28.4505
1204	53.2064
1208	37.4943
1212	13.5287
1216	32.874
1220	1.64378
1224	-5.92262
1228	10.4331
1232	-6.34212
1236	-23.9291
1240	7.32242
1244	-7.79311
1248	71.5109
1252	70.3433
1256	178.263
1260	147.608
1264	151.271
1268	145.349
1272	107.42
1276	27.5981
1280	18.6463
1284	36.7209
1288	-1.51293
1292	17.4914
1296	4.43167
1300	-2.38833
1304	15.589
1308	-19.2141
1312	13.6271
1316	-18.8899
1320	4.00685
1324	-3.78161
1328	27.5871
1332	5.60995
1336	-15.0775
1340	19.6018
1344	2.75578
1348	-1.60788
1352	29.9223
1356	23.9238
1360	5.22294
1364	5.9518
1368	4.84821
1372	4.5214
1376	50.7035
1380	-1.92421
1384	2.94684
1388	-11.6735
1392	38.5254
1396	19.9696
1400	0.119456
1404	-4.72279
1408	24.4733
1412	41.9078
1416	13.0217
1420	-7.17813
1424	12.8501
1428	5.70517
1432	4.68582
1436	32.4922
1440	-10.8235
1444	-5.79062
1448	24.8283
1452	4.35134
1456	1.36039
1460	28.2719
1464	-2.61575
1468	-0.144932
1472	10.1068
1476	18.9634
1480	51.1763
1484	24.335
1488	5.36784
1492	8.85617
1496	4.03665
1500	3.39669
1504	11.474
1508	1.98708
1512	34.2546
1516	10.316
1520	13.3433
1524	-7.36608
1528	25.132
1532	12.5923
1536	9.17864
1540	19.4679
1544	-23.6615
1548	39.3484
1552	1.45764
1556	13.2989
1560	-17.859
1564	-4.89864
1568	-4.81418
1572	32.7303
1576	213.437
1580	314.034
1584	249.767
1588	125.36
1592	-4.66273
1596	-13.6728
1600	6.31427
1604	20.7126
1608	-4.58003
1612	-19.8673
1616	22.2145
1620	20.3384
1624	22.5448
1628	1.19552
1632	30.7415
1636	-3.55539
1640	14.9305
1644	-5.83112
1648	18.8201
