Raman shift (cm-1)	intensity
320	-13.9258
324	26.0254
328	24.4793
332	-1.02545
336	5.35877
340	22.7286
344	21.7679
348	38.1415
352	-7.7615
356	35.6113
360	16.6639
364	25.2715
368	-27.3818
372	67.9125
376	77.6836
380	-0.968558
384	-4.71738
388	23.2796
392	-13.71
396	-3.08354
400	-8.96831
404	21.5925
408	140.382
412	203.283
416	260.084
420	316.803
424	316.584
428	233.608
432	166.36
436	54.7727
440	-13.2204
444	37.523
448	32.7474
452	32.9204
456	26.858
460	11.7196
464	1.28136
468	-14.7755
472	-2.10954
476	-10.8448
480	7.67394
484	2.22269
488	31.6899
492	22.4375
496	5.49048
500	-21.5257
504	-9.15205
508	16.9442
512	97.7621
516	165.925
520	156.392
524	114.269
528	87.0911
532	20.8651
536	24.483
540	9.73971
544	42.9619
548	15.5766
552	43.7847
556	4.07651
560	8.54678
564	-10.029
568	-9.49883
572	-3.74951
576	-19.4341
580	18.3581
584	25.8056
588	23.0844
592	-12.1765
596	2.69178
600	2.0291
604	18.4017
608	0.768738
612	-6.44877
616	7.65135
620	1.71178
624	13.7924
628	17.9583
632	23.5851
636	23.821
640	8.75027
644	-7.68987
648	10.4877
652	5.43022
656	20.5683
660	-4.33639
664	29.8131
668	-1.69073
672	21.0159
676	1.60803
680	-4.65231
684	2.04093
688	11.3833
692	-1.84082
696	6.19299
700	7.97503
704	3.46059
708	8.90579
712	59.4482
716	62.7296
720	51.7531
724	-11.0116
728	16.3538
732	2.38557
736	4.48664
740	-13.3145
744	-11.2636
748	3.55864
752	4.59547
756	3.75446
760	-6.52264
764	8.55261
768	9.95856
772	57.8788
776	10.608
780	16.7062
784	14.5414
788	13.7747
792	13.1827
796	31.6034
800	0.395849
804	14.3013
808	15.1821
812	5.87868
816	18.2608
820	15.1487
824	16.441
828	12.8626
832	-6.07485
836	-1.76953
840	25.3964
844	17.854
848	-0.911923
852	38.391
856	1.05346
860	4.67453
864	-11.2216
868	23.7752
872	15.7477
876	0.379075
880	10.851
884	3.07141
888	7.24361
892	12.472
896	-14.5956
900	19.089
904	3.85459
908	8.04682
912	32.8208
916	8.42178
920	14.9626
924	13.8948
928	16.0293
932	24.6186
936	21.2804
940	4.37063
944	31.0052
948	5.05323
952	22.323
956	0.386832
960	22.1115
964	-10.5157
968	12.5186
972	42.7776
976	18.4382
980	-12.9849
984	63.143
988	19.133
992	4.15895
996	43.2423
1000	91.6015
1004	55.2323
1008	8.0797
1012	8.13329
1016	19.5566
1020	-4.60066
1024	32.2862
1028	9.41638
1032	31.4644
1036	9.98914
1040	22.699
1044	0.829939
1048	-5.63954
1052	-22.0105
1056	11.8842
1060	-10.8042
1064	-25.5971
1068	80.9672
1072	296.38
1076	435.75
1080	388.14
1084	193.681
1088	23.8344
1092	-3.53073
1096	-27.6485
1100	-8.62909
1104	-7.037
1108	6.2041
1112	9.16175
1116	3.06272
1120	5.32417
1124	-10.5008
1128	50.0519
1132	4.7386
1136	48.215
1140	3.61487
1144	3.66726
1148	18.7312
1152	-12.0894
1156	17.2191
1160	20.6263
1164	-4.91981
1168	-8.19345
1172	35.6662
1176	7.28772
1180	23.8363
1184	28.1789
1188	-16.6194
1192	0.221376
1196	-9.64733
1200	33.362
1204	1.86919
1208	87.6343
1212	30.5235
1216	-4.48435
1220	-5.40702
1224	20.6388
1228	-14.1118
1232	-5.8362
1236	22.8117
1240	-1.24043
1244	1.75517
1248	18.7764
1252	67.6268
1256	19.1359
1260	43.4047
1264	10.4301
1268	79.1037
1272	14.0776
1276	-2.49841
1280	58.9992
1284	-10.4759
1288	-13.4252
1292	27.889
1296	41.6479
1300	-6.40077
1304	3.24284
1308	12.0736
1312	-16.6654
1316	-6.7809
1320	48.5366
1324	38.016
1328	4.26495
1332	7.85731
1336	0.990281
1340	-5.07207
1344	23.6441
1348	0.246333
1352	2.11387
1356	27.1464
1360	-8.98463
1364	53.7432
1368	-10.929
1372	31.6696
1376	30.78
1380	41.1379
1384	18.7745
1388	9.4339
1392	5.4465
1396	21.9919
1400	-4.4729
1404	21.6907
1408	1.26559
1412	-0.622037
1416	-7.45978
1420	10.2677
1424	26.2801
1428	13.6788
1432	4.85653
1436	5.34305
1440	20.612
1444	-3.69023
1448	30.8793
1452	-2.26164
1456	39.9437
1460	57.8075
1464	-25.2363
1468	18.1282
1472	23.3828
1476	39.6524
1480	0.874068
1484	2.85959
1488	31.4312
1492	-3.76141
1496	-4.60048
1500	21.9025
1504	8.67967
1508	-10.0385
1512	5.51937
1516	12.113
1520	14.867
1524	7.42092
1528	5.26895
1532	0.268405
1536	9.79436
1540	-8.13043
1544	6.12065
1548	17.7122
1552	-6.71159
1556	26.8258
1560	-18.7922
1564	-16.4942
1568	32.7502
1572	64.2741
1576	245.477
1580	248.33
1584	256.407
1588	80.726
1592	43.9055
1596	-29.0352
1600	-5.14705
1604	12.5346
1608	-3.00251
1612	8.84227
1616	7.00484
1620	-9.38686
1624	20.7449
1628	14.8711
1632	25.834
1636	16.3599
1640	-9.29602
1644	21.7284
1648	13.628
