Raman shift (cm-1)	intensity
320	6.99687
324	-2.06817
328	-0.516389
332	36.2773
336	17.7066
340	27.4137
344	5.27251
348	31.0517
352	-2.74055
356	30.3537
360	1.68329
364	-5.55648
368	-0.833727
372	2.26832
376	2.79515
380	-5.90822
384	9.5874
388	-7.97177
392	9.35806
396	16.1352
400	13.4425
404	-9.06781
408	-11.1336
412	32.7042
416	24.0236
420	110.231
424	97.5566
428	80.2865
432	2.26135
436	31.9589
440	2.89107
444	-12.8297
448	21.1323
452	52.6658
456	41.7376
460	24.868
464	28.7273
468	-24.7435
472	31.7501
476	3.09855
480	-5.45013
484	3.94733
488	40.1836
492	7.49484
496	-8.68417
500	-4.88201
504	25.9609
508	35.4774
512	23.06
516	75.1715
520	77.0259
524	20.5996
528	10.2162
532	13.5183
536	56.1073
540	-3.39622
544	9.40893
548	-0.168429
552	24.0736
556	25.5542
560	10.523
564	35.8314
568	-2.01231
572	-6.24654
576	9.93422
580	-13.9346
584	28.2621
588	6.72646
592	10.7773
596	3.96025
600	2.99258
604	5.18503
608	25.4776
612	29.2828
616	4.1749
620	18.4079
624	16.6955
628	14.5869
632	32.2673
636	-2.85224
640	-4.7664
644	26.4374
648	19.1708
652	14.4611
656	21.8038
660	20.9632
664	-5.1234
668	17.199
672	4.20693
676	-1.91664
680	-3.61174
684	2.5077
688	21.9035
692	25.0842
696	23.7754
700	15.6635
704	4.2938
708	5.73537
712	16.4349
716	-3.34304
720	11.1324
724	4.76951
728	4.69
732	8.45225
736	12.2239
740	-15.0972
744	3.83428
748	12.8644
752	-5.44616
756	3.86549
760	39.9174
764	-10.6183
768	1.18239
772	20.3342
776	70.358
780	-2.48617
784	7.63016
788	21.3651
792	38.4427
796	26.3615
800	-7.16323
804	29.5612
808	10.5073
812	18.4178
816	16.1479
820	26.038
824	16.5162
828	-11.0715
832	8.1751
836	-3.75087
840	4.27193
844	52.091
848	-11.3586
852	33.5664
856	8.2727
860	-2.68506
864	30.6423
868	-12.9443
872	-7.93112
876	45.1047
880	3.99982
884	43.606
888	0.482743
892	-8.67044
896	17.1228
900	6.60362
904	18.9639
908	27.975
912	10.7636
916	10.3871
920	-2.48643
924	23.9028
928	41.0544
932	23.1182
936	0.256265
940	-4.7201
944	33.753
948	26.5297
952	20.2851
956	7.31565
960	16.8137
964	28.1809
968	-12.9448
972	35.1936
976	11.9741
980	-7.55179
984	29.4233
988	75.1444
992	9.61897
996	9.74342
1000	32.811
1004	3.93783
1008	-0.838144
1012	30.1466
1016	18.6092
1020	20.0599
1024	12.4229
1028	7.00771
1032	19.3245
1036	-7.23257
1040	3.10673
1044	4.87965
1048	-12.4908
1052	-0.281003
1056	-1.67051
1060	-10.5286
1064	-12.0182
1068	26.7
1072	146.659
1076	257.83
1080	286.642
1084	159.639
1088	26.175
1092	12.3968
1096	-30.9629
1100	1.88166
1104	27.4714
1108	-16.364
1112	13.4639
1116	8.49561
1120	3.60141
1124	-2.05428
1128	16.4305
1132	14.5634
1136	-0.86161
1140	48.317
1144	37.7106
1148	18.4995
1152	1.51158
1156	18.1996
1160	16.0989
1164	0.818729
1168	14.3418
1172	5.20866
1176	0.739705
1180	39.048
1184	8.09729
1188	-8.2428
1192	28.0171
1196	22.9401
1200	-18.8695
1204	50.4434
1208	35.0113
1212	-0.212989
1216	29.2395
1220	-0.663106
1224	18.1047
1228	0.857851
1232	-2.52182
1236	29.9329
1240	-4.20232
1244	1.02165
1248	45.395
1252	11.891
1256	39.5621
1260	55.5907
1264	-8.87378
1268	19.61
1272	8.06632
1276	31.191
1280	-9.02481
1284	-0.213336
1288	31.842
1292	-2.90351
1296	-5.77141
1300	19.3209
1304	52.0783
1308	-1.33991
1312	5.62788
1316	-5.89302
1320	26.8618
1324	33.7947
1328	-2.19254
1332	28.5299
1336	11.8639
1340	-5.1234
1344	11.6559
1348	38.9859
1352	-6.24476
1356	22.9202
1360	3.87718
1364	50.2983
1368	3.13074
1372	0.900877
1376	13.7792
1380	-3.77013
1384	20.9571
1388	9.90761
1392	3.61944
1396	23.9274
1400	13.9517
1404	49.0245
1408	30.2722
1412	0.87519
1416	45.1578
1420	-6.55693
1424	1.25973
1428	-0.0607092
1432	12.7291
1436	17.9549
1440	-10.3123
1444	0.0827537
1448	42.6916
1452	27.3372
1456	-4.92597
1460	1.89973
1464	-1.79544
1468	35.4205
1472	-3.58426
1476	28.7011
1480	14.4559
1484	31.61
1488	23.5106
1492	-6.13496
1496	7.70329
1500	20.8137
1504	-10.1251
1508	56.6509
1512	-5.74889
1516	-19.3993
1520	45.6837
1524	4.40532
1528	25.3348
1532	-5.90279
1536	5.21862
1540	28.6488
1544	3.50241
1548	-5.82645
1552	16.6354
1556	0.136302
1560	-1.06693
1564	8.93691
1568	35.4658
1572	7.24092
1576	123.368
1580	201.754
1584	231.087
1588	133.661
1592	30.6564
1596	-29.7003
1600	2.82117
1604	6.44662
1608	-1.18513
1612	12.1571
1616	12.0304
1620	0.403338
1624	-1.39016
1628	9.10558
1632	48.187
1636	10.9832
1640	45.8996
1644	-10.3148
1648	2.2287
