Raman shift (cm-1)	intensity
320	4.80503
324	7.53042
328	3.745
332	56.937
336	69.4854
340	3.37094
344	36.6079
348	24.9005
352	53.6113
356	20.5478
360	41.8094
364	21.5856
368	21.2189
372	-0.600307
376	4.16988
380	14.386
384	-8.29041
388	-3.07965
392	10.3051
396	29.0835
400	-0.616093
404	27.5191
408	5.6977
412	-1.31876
416	95.2524
420	123.993
424	187.108
428	144.596
432	107.218
436	60.3378
440	20.3629
444	20.5232
448	52.8347
452	45.819
456	4.89227
460	39.4269
464	8.1299
468	38.5721
472	-13.2616
476	-1.34273
480	7.89654
484	67.4214
488	47.472
492	4.14107
496	29.9102
500	16.7339
504	0.0278196
508	33.7263
512	91.814
516	153.617
520	168.644
524	159.466
528	106.285
532	102.854
536	106.154
540	44.1051
544	54.9844
548	49.4961
552	37.0771
556	-6.13304
560	10.5579
564	31.888
568	6.84306
572	1.45022
576	14.3747
580	22.8589
584	2.74638
588	47.6203
592	-3.18462
596	29.5929
600	18.7002
604	26.9015
608	17.8758
612	4.52423
616	31.361
620	-9.35657
624	6.74741
628	26.0874
632	11.1173
636	24.8168
640	4.35448
644	11.7942
648	25.0238
652	30.1524
656	34.5573
660	4.27774
664	36.6201
668	37.5481
672	12.182
676	11.0871
680	5.78913
684	34.9356
688	11.7314
692	14.0075
696	59.487
700	13.6146
704	43.9982
708	26.6289
712	35.6356
716	32.3069
720	11.1863
724	47.7112
728	25.8899
732	-23.3073
736	48.19
740	18.0641
744	0.136367
748	4.14902
752	15.8198
756	29.3102
760	1.74505
764	12.6127
768	64.2225
772	17.3269
776	17.4006
780	47.2407
784	12.9317
788	18.5057
792	6.41476
796	55.8696
800	24.613
804	23.6739
808	10.85
812	10.8331
816	51.5639
820	-0.7977
824	42.0123
828	-8.76626
832	11.4322
836	34.7711
840	23.4136
844	-1.07677
848	38.041
852	15.5206
856	4.18962
860	19.4791
864	20.2853
868	15.8219
872	12.6909
876	-9.31301
880	20.6104
884	12.6366
888	3.05203
892	24.8284
896	-0.581655
900	25.4217
904	18.3768
908	8.41032
912	57.6213
916	50.4767
920	-9.70487
924	69.6503
928	66.7571
932	29.2473
936	37.6941
940	8.08912
944	17.7785
948	23.5828
952	13.9376
956	43.4193
960	7.58672
964	7.13659
968	17.8393
972	40.555
976	27.5636
980	26.5284
984	27.2521
988	-2.2951
992	56.1708
996	49.7674
1000	29.5985
1004	48.8227
1008	31.7777
1012	28.5146
1016	34.2217
1020	26.6834
1024	18.4984
1028	-0.955335
1032	7.13951
1036	10.3452
1040	24.0548
1044	24.4125
1048	-1.70658
1052	26.5506
1056	-3.71449
1060	-8.47979
1064	38.7631
1068	83.1745
1072	183.09
1076	355.427
1080	291.404
1084	180.841
1088	91.3767
1092	0.440834
1096	-1.14124
1100	11.27
1104	16.2924
1108	2.76155
1112	23.4779
1116	44.1713
1120	-4.69368
1124	32.4545
1128	25.1979
1132	2.77319
1136	94.7671
1140	35.0673
1144	51.7962
1148	26.5507
1152	25.9879
1156	-2.52577
1160	25.952
1164	24.9854
1168	28.4755
1172	-1.89032
1176	56.7577
1180	29.1174
1184	28.5952
1188	30.4266
1192	19.1019
1196	24.13
1200	38.0457
1204	45.3048
1208	33.2054
1212	-1.6775
1216	31.0412
1220	26.254
1224	-11.5432
1228	11.9165
1232	11.6658
1236	20.2477
1240	3.92914
1244	64.0846
1248	37.4907
1252	41.3265
1256	63.8228
1260	88.3887
1264	60.714
1268	68.2049
1272	54.4132
1276	47.3257
1280	38.7667
1284	25.7055
1288	35.0393
1292	35.9235
1296	-9.75226
1300	1.83151
1304	9.8919
1308	29.2936
1312	13.2134
1316	3.46058
1320	35.9996
1324	3.68572
1328	8.77547
1332	26.7885
1336	35.0411
1340	-12.184
1344	16.1309
1348	51.4416
1352	70.3152
1356	-7.48656
1360	21.0657
1364	48.8093
1368	39.8952
1372	2.29492
1376	44.042
1380	38.7405
1384	24.8653
1388	14.4236
1392	6.97491
1396	43.6846
1400	7.21932
1404	57.9123
1408	38.7683
1412	44.0044
1416	50.3995
1420	11.1494
1424	25.9239
1428	14.8125
1432	17.6214
1436	21.0766
1440	35.4003
1444	7.92597
1448	8.57866
1452	29.6657
1456	22.154
1460	6.71612
1464	8.10435
1468	13.9084
1472	14.3619
1476	25.72
1480	43.9172
1484	30.0106
1488	-0.0071725
1492	12.6172
1496	14.3027
1500	41.3637
1504	35.9722
1508	2.21874
1512	10.6017
1516	23.2026
1520	24.726
1524	-3.46034
1528	23.9816
1532	13.175
1536	14.6776
1540	26.8123
1544	4.2272
1548	8.00496
1552	6.78768
1556	12.8352
1560	-9.93228
1564	-0.206227
1568	2.17213
1572	30.2643
1576	129.094
1580	284.174
1584	277.196
1588	204.849
1592	79.1958
1596	4.05957
1600	-10.9134
1604	17.6884
1608	1.24058
1612	16.2612
1616	5.54461
1620	15.2899
1624	11.5437
1628	19.2092
1632	52.5244
1636	31.4344
1640	19.1437
1644	-5.14018
1648	13.5878
