Raman shift (cm-1)	intensity
320	5.60764
324	-8.81106
328	14.2548
332	27.9439
336	-1.27306
340	30.6819
344	21.7598
348	5.30731
352	28.4516
356	4.228
360	-10.4885
364	5.70361
368	-3.65534
372	37.8448
376	-15.5744
380	15.9448
384	24.9368
388	15.0453
392	3.72007
396	-4.44701
400	19.1618
404	-12.3766
408	-12.0343
412	30.1696
416	13.6622
420	66.8294
424	71.2006
428	55.9983
432	20.5042
436	15.0218
440	11.5678
444	4.39078
448	-8.37072
452	10.0705
456	12.5196
460	9.98513
464	11.9489
468	11.4541
472	3.18206
476	8.65326
480	-9.40193
484	15.3239
488	31.4705
492	6.1083
496	14.6367
500	-15.8356
504	21.3457
508	2.20313
512	31.4859
516	118.956
520	93.8977
524	28.5677
528	2.09386
532	7.54305
536	12.1675
540	46.7589
544	11.8533
548	-6.88271
552	7.48363
556	45.228
560	18.1664
564	10.828
568	16.4246
572	-2.43823
576	-3.3655
580	6.35656
584	0.552394
588	-4.4556
592	7.06299
596	23.0105
600	16.4317
604	11.6226
608	8.56411
612	5.37802
616	2.18261
620	45.3218
624	40.7749
628	-6.98649
632	32.8982
636	0.153207
640	14.7244
644	2.61959
648	14.9915
652	16.8309
656	16.4778
660	-6.38873
664	10.3556
668	-0.329134
672	14.3649
676	-9.47367
680	3.97335
684	1.25556
688	5.8583
692	2.03086
696	8.12347
700	3.40874
704	3.36184
708	13.4786
712	17.611
716	2.09888
720	-3.49362
724	14.8115
728	27.4499
732	-4.01
736	27.5472
740	-1.51214
744	2.14893
748	-0.231691
752	7.03496
756	8.78777
760	-3.55142
764	-0.688096
768	20.2078
772	28.5018
776	17.7951
780	1.28858
784	-2.13148
788	30.0647
792	8.00823
796	33.1211
800	12.2551
804	3.59018
808	1.74711
812	22.4507
816	27.1227
820	7.25942
824	21.0441
828	-7.92982
832	-8.17017
836	24.8181
840	-10.7596
844	3.51047
848	25.3684
852	-1.23609
856	10.1044
860	10.7743
864	22.6316
868	30.2287
872	-10.1886
876	-2.6584
880	4.53447
884	4.38428
888	22.7596
892	-4.03689
896	9.81941
900	3.34373
904	51.7413
908	-16.6266
912	3.86673
916	28.6949
920	45.1052
924	-2.66753
928	18.0894
932	26.8721
936	2.14837
940	60.5704
944	-9.21874
948	-2.6006
952	21.6122
956	2.48043
960	23.5353
964	31.5615
968	-15.7126
972	7.11643
976	-5.66458
980	24.2848
984	6.57201
988	20.2227
992	3.52865
996	20.7024
1000	-8.09694
1004	24.4096
1008	6.88554
1012	0.553088
1016	8.64201
1020	17.1684
1024	13.7827
1028	8.48554
1032	13.6212
1036	11.986
1040	19.6816
1044	-16.9579
1048	32.0092
1052	3.73505
1056	16.9101
1060	-31.6546
1064	25.1658
1068	-10.6387
1072	164.394
1076	277.377
1080	255.911
1084	155.451
1088	28.8684
1092	-16.0589
1096	-15.1551
1100	31.6626
1104	14.6001
1108	-7.99344
1112	29.3545
1116	4.41315
1120	22.0404
1124	-13.694
1128	24.6316
1132	-3.02861
1136	42.082
1140	33.8272
1144	20.426
1148	-3.23468
1152	5.48694
1156	5.44864
1160	13.2115
1164	-7.81625
1168	45.4163
1172	1.92206
1176	-11.1919
1180	41.7042
1184	13.5526
1188	-4.16018
1192	2.56878
1196	13.8175
1200	1.66309
1204	13.4145
1208	28.0343
1212	-0.847524
1216	12.1235
1220	-4.42335
1224	6.39211
1228	-10.902
1232	1.01494
1236	22.9765
1240	5.81412
1244	36.0833
1248	1.46635
1252	25.5295
1256	4.54836
1260	16.4429
1264	16.8407
1268	29.2844
1272	5.06891
1276	-12.8182
1280	21.7108
1284	3.1805
1288	8.20502
1292	-2.30987
1296	1.83108
1300	9.34342
1304	-1.51493
1308	-0.130903
1312	19.1685
1316	17.5221
1320	18.5342
1324	-6.93244
1328	24.0646
1332	40.9827
1336	-11.1124
1340	12.6816
1344	8.27997
1348	-1.06594
1352	12.1338
1356	44.0933
1360	9.16202
1364	-0.346517
1368	1.25116
1372	27.0335
1376	-9.73194
1380	31.613
1384	53.1918
1388	-11.4954
1392	40.1429
1396	5.61249
1400	2.46564
1404	8.59865
1408	45.355
1412	38.2585
1416	2.66627
1420	16.9202
1424	-4.01507
1428	33.5303
1432	18.6002
1436	0.11109
1440	2.9447
1444	-4.20815
1448	20.0271
1452	25.0338
1456	-3.14374
1460	15.4068
1464	19.1702
1468	10.6662
1472	13.1855
1476	-3.69682
1480	7.48202
1484	36.3487
1488	16.5987
1492	-7.4738
1496	6.48339
1500	18.1154
1504	18.1522
1508	-1.63271
1512	17.1803
1516	2.72831
1520	20.4393
1524	10.9815
1528	-20.3067
1532	23.908
1536	19.3563
1540	13.6199
1544	10.2012
1548	25.4822
1552	28.1944
1556	1.55058
1560	-21.7159
1564	10.9018
1568	11.6127
1572	-9.70801
1576	57.4927
1580	185.495
1584	232.814
1588	160.074
1592	3.96524
1596	-3.63491
1600	-5.50976
1604	-5.6203
1608	17.0467
1612	12.8148
1616	12.5413
1620	-0.719438
1624	2.09963
1628	4.35967
1632	13.123
1636	11.5785
1640	13.7323
1644	-13.2772
1648	12.0919
