Raman shift (cm-1)	intensity
320	23.097
324	34.1029
328	124.672
332	98.3381
336	78.6613
340	19.1742
344	68.461
348	15.1416
352	80.5295
356	9.14616
360	-9.36355
364	-31.6772
368	-3.16538
372	29.267
376	11.8515
380	3.78953
384	27.7443
388	15.3486
392	-34.8655
396	-14.107
400	-24.2141
404	3.72367
408	60.8015
412	94.9278
416	115.501
420	176.451
424	134.148
428	47.0455
432	29.6208
436	39.9288
440	-8.20972
444	-1.64941
448	77.8733
452	-1.80183
456	11.5679
460	16.4845
464	-35.9214
468	3.03876
472	-9.493
476	-1.16814
480	1.39404
484	23.1281
488	4.39867
492	-6.19565
496	-3.05537
500	-26.0172
504	22.352
508	32.1585
512	156.909
516	236.659
520	219.771
524	41.7269
528	11.8023
532	-2.55668
536	-8.60263
540	-2.8204
544	-4.85714
548	98.391
552	91.7338
556	71.464
560	-11.9191
564	34.8587
568	6.96429
572	-20.1909
576	-17.5234
580	14.1885
584	26.4408
588	12.4532
592	-3.18889
596	-1.58152
600	-13.9041
604	-3.93829
608	-14.3449
612	-11.5254
616	-22.9496
620	-4.49353
624	11.445
628	79.1836
632	286.228
636	465.222
640	501.6
644	422.927
648	258.068
652	114.843
656	27.1739
660	-42.8336
664	-41.4733
668	-44.7932
672	-13.9156
676	57.9213
680	337.413
684	406.448
688	217.677
692	-3.59659
696	-52.8657
700	24.9847
704	-1.036
708	21.8551
712	218.09
716	379.2
720	516.161
724	534.391
728	406.464
732	181.85
736	35.5944
740	-69.5294
744	-24.208
748	246.113
752	333.98
756	212.615
760	-8.33778
764	-12.0112
768	-10.28
772	-13.8507
776	-22.6399
780	-46.1831
784	2.93676
788	48.2697
792	61.6357
796	291.073
800	334.18
804	241.77
808	77.9983
812	20.548
816	-6.26699
820	47.418
824	-20.6633
828	34.1975
832	-6.00504
836	63.6742
840	5.10804
844	-16.6452
848	-44.8127
852	11.5925
856	141.134
860	335.116
864	309.012
868	241.892
872	74.8627
876	47.2881
880	-4.80496
884	-9.96477
888	-3.18352
892	-21.48
896	-37.6619
900	-3.87804
904	71.7598
908	17.932
912	56.6455
916	75.0855
920	56.46
924	85.4933
928	29.3775
932	27.7997
936	30.7163
940	64.3014
944	9.12152
948	21.3803
952	-5.548
956	9.47892
960	52.3136
964	-30.403
968	17.2185
972	-40.3601
976	31.8148
980	-9.24922
984	-16.4273
988	-9.45694
992	-27.7774
996	10.0317
1000	59.1827
1004	34.245
1008	22.2293
1012	89.6596
1016	55.596
1020	71.713
1024	81.4373
1028	44.4623
1032	70.4261
1036	88.2409
1040	96.8305
1044	52.4543
1048	-13.9689
1052	-16.9677
1056	-14.4093
1060	-49.7404
1064	7.02411
1068	123.704
1072	584.773
1076	793.915
1080	646.871
1084	179.699
1088	-63.4318
1092	-14.1197
1096	-3.76833
1100	57.8098
1104	16.1746
1108	-0.715564
1112	-36.1246
1116	0.532786
1120	32.8352
1124	-17.902
1128	98.1964
1132	58.3552
1136	143.403
1140	196.907
1144	144.551
1148	9.22872
1152	-5.66676
1156	-16.7839
1160	-1.83009
1164	-22.6239
1168	-9.38968
1172	-44.0798
1176	53.8561
1180	136.045
1184	418.853
1188	451.333
1192	216.451
1196	-22.9732
1200	-46.5209
1204	16.7696
1208	54.2992
1212	-6.58187
1216	40.4877
1220	9.18524
1224	-26.0188
1228	-18.8415
1232	48.9508
1236	151.677
1240	260.341
1244	287.034
1248	255.142
1252	161.294
1256	50.2127
1260	27.0795
1264	-16.8804
1268	-23.6105
1272	37.1818
1276	32.5713
1280	43.7323
1284	99.9547
1288	45.2701
1292	75.9442
1296	64.103
1300	37.7677
1304	48.0716
1308	21.5957
1312	-0.672784
1316	-23.1017
1320	-8.34156
1324	7.58949
1328	-21.2375
1332	0.678402
1336	0.842779
1340	-21.5463
1344	13.004
1348	16.7162
1352	-6.14201
1356	54.2545
1360	29.122
1364	13.5793
1368	9.53409
1372	13.5664
1376	17.7454
1380	83.4786
1384	78.3579
1388	6.9533
1392	22.4999
1396	31.0924
1400	-26.343
1404	-12.0997
1408	5.2579
1412	7.89354
1416	28.0239
1420	-8.80747
1424	-30.0897
1428	-7.8395
1432	-12.2441
1436	112.392
1440	161.47
1444	163.992
1448	126.304
1452	42.8055
1456	46.2362
1460	83.8924
1464	155.452
1468	329.305
1472	261.966
1476	173.283
1480	-5.2387
1484	-8.42928
1488	-14.6335
1492	-18.7787
1496	-40.691
1500	40.2581
1504	29.1261
1508	3.36443
1512	17.9893
1516	0.301618
1520	9.30074
1524	-5.24196
1528	17.1526
1532	-12.5076
1536	35.8551
1540	-10.5964
1544	-5.37548
1548	25.4199
1552	42.2363
1556	-26.9722
1560	-26.7147
1564	-31.2072
1568	34.8775
1572	237.046
1576	557.066
1580	496.019
1584	144.216
1588	-21.1622
1592	-32.9098
1596	25.9595
1600	43.0463
1604	3.24129
1608	64.5497
1612	21.8768
1616	46.3278
1620	19.206
1624	20.9935
1628	-30.7289
1632	8.38275
1636	38.72
1640	43.6499
1644	-18.7374
1648	-3.65631
