Raman shift (cm-1)	intensity
320	51.5298
324	31.2999
328	13.7642
332	55.9504
336	89.2128
340	37.197
344	75.2246
348	20.937
352	28.1033
356	16.1815
360	-47.7521
364	-7.86203
368	0.588539
372	23.8789
376	24.3654
380	-5.94273
384	-8.94215
388	8.42435
392	-29.5002
396	-40.4527
400	5.99183
404	-1.08085
408	59.3906
412	75.5274
416	199.259
420	231.538
424	211.488
428	206.992
432	70.1869
436	-8.13823
440	9.17821
444	14.0039
448	43.4113
452	3.12513
456	46.2365
460	2.76652
464	2.94301
468	-8.15669
472	7.86724
476	26.7788
480	-34.5174
484	27.4188
488	40.1638
492	11.6152
496	-19.4786
500	-4.77748
504	5.2509
508	97.1695
512	178.268
516	329.372
520	215.924
524	139.664
528	47.2124
532	-29.4231
536	-9.89102
540	7.57154
544	64.5789
548	11.1571
552	44.297
556	35.5131
560	34.1302
564	-13.1808
568	-10.9572
572	48.0569
576	13.3321
580	-19.7284
584	34.7453
588	14.8834
592	7.319
596	11.6181
600	-10.7804
604	-11.612
608	-11.2074
612	-17.7414
616	-40.1521
620	28.299
624	31.0023
628	42.5479
632	270.399
636	452.353
640	378.062
644	360.884
648	185.32
652	58.776
656	35.3631
660	-46.8668
664	-45.1198
668	-39.8225
672	-23.2144
676	91.2671
680	405.743
684	492.807
688	219.496
692	12.3858
696	-29.6871
700	-20.3188
704	-21.3255
708	52.5679
712	344.967
716	441.117
720	599.907
724	557.554
728	468.939
732	240.707
736	46.526
740	-61.274
744	-28.1397
748	228.293
752	339.293
756	159.045
760	-0.96118
764	-24.1365
768	-30.8908
772	7.15194
776	-47.633
780	-30.1887
784	30.1776
788	176.369
792	294.715
796	396.915
800	512.514
804	388.735
808	189.863
812	23.7078
816	6.51813
820	-5.21664
824	-30.673
828	41.6417
832	83.5772
836	-16.8465
840	13.6769
844	-10.5928
848	-50.4825
852	58.1878
856	224.99
860	371.927
864	423.275
868	413.61
872	297.833
876	147.164
880	-10.8553
884	35.8507
888	-32.5475
892	7.70996
896	-16.36
900	-38.1405
904	31.0865
908	10.3085
912	29.2119
916	61.2359
920	17.4383
924	81.301
928	67.6628
932	88.2715
936	57.0529
940	13.3822
944	40.2229
948	36.4544
952	27.9008
956	3.88414
960	44.2734
964	-16.3455
968	-14.3901
972	3.88927
976	0.120248
980	-4.64839
984	-20.485
988	-10.2623
992	-20.7729
996	45.2491
1000	97.8978
1004	73.6436
1008	36.8516
1012	119.522
1016	146.981
1020	116.11
1024	124.96
1028	131.227
1032	102.768
1036	90.2953
1040	60.7005
1044	14.0362
1048	35.9874
1052	-32.9963
1056	-31.4527
1060	-70.9106
1064	17.3519
1068	242.755
1072	785.244
1076	1072.91
1080	773.239
1084	227.713
1088	-29.5384
1092	-75.4447
1096	103.022
1100	80.72
1104	37.2857
1108	-11.4952
1112	-6.34394
1116	-18.2064
1120	5.90043
1124	-4.92796
1128	35.5982
1132	159.479
1136	131.273
1140	161.876
1144	98.5192
1148	48.5792
1152	5.82407
1156	-11.9289
1160	-5.19964
1164	-51.9094
1168	-9.50577
1172	-10.1857
1176	91.7473
1180	367.504
1184	556.819
1188	579.901
1192	299.746
1196	-10.8194
1200	-57.3578
1204	-8.18818
1208	32.5263
1212	-2.41846
1216	-0.943776
1220	3.8407
1224	-3.66003
1228	-39.7552
1232	49.6163
1236	160.683
1240	211.413
1244	322.244
1248	272.386
1252	191.603
1256	47.4986
1260	10.3965
1264	-0.332201
1268	-17.4534
1272	12.9963
1276	99.0088
1280	94.939
1284	92.75
1288	87.7655
1292	123.255
1296	132.209
1300	75.7466
1304	96.5136
1308	30.7066
1312	-29.4727
1316	-11.6057
1320	16.1608
1324	-6.67741
1328	-20.2174
1332	-8.51754
1336	11.8315
1340	-33.2837
1344	31.5366
1348	16.589
1352	9.60387
1356	35.5924
1360	34.23
1364	9.43562
1368	33.2209
1372	-18.6814
1376	89.7144
1380	97.2941
1384	52.745
1388	69.8905
1392	71.2404
1396	-14.5438
1400	-8.15726
1404	-27.1168
1408	1.80093
1412	29.5447
1416	-7.88567
1420	-15.1359
1424	-28.9172
1428	7.35213
1432	-5.641
1436	43.8248
1440	206.263
1444	262.893
1448	237.999
1452	181.466
1456	129.424
1460	63.5606
1464	212.135
1468	284.922
1472	281.449
1476	59.3867
1480	6.04483
1484	-40.9156
1488	-22.3914
1492	-28.5041
1496	38.9126
1500	-17.6781
1504	37.9488
1508	-13.8024
1512	23.0798
1516	-1.48432
1520	29.0931
1524	-18.5518
1528	7.39073
1532	44.6122
1536	-0.342229
1540	-2.2145
1544	-10.5397
1548	17.8821
1552	11.2495
1556	-5.75847
1560	-29.4317
1564	-32.3176
1568	1.16616
1572	292.733
1576	651.635
1580	626.211
1584	182.821
1588	-29.3581
1592	-27.748
1596	16.5687
1600	19.5643
1604	38.983
1608	12.4131
1612	4.31859
1616	46.2206
1620	36.797
1624	-29.6086
1628	42.6758
1632	-19.7184
1636	34.8902
1640	18.6155
1644	3.9787
1648	-17.0465
