Raman shift (cm-1)	intensity
320	16.7129
324	-0.673055
328	45.9434
332	32.0282
336	87.0561
340	67.534
344	41.8406
348	25.769
352	21.2625
356	15.273
360	6.0782
364	-17.821
368	-11.5074
372	27.6728
376	22.4302
380	-3.95363
384	-24.1277
388	28.4689
392	-8.77394
396	-12.1216
400	1.0242
404	5.78649
408	-29.1908
412	26.0134
416	102.88
420	192.94
424	237.326
428	125.348
432	82.0729
436	10.5614
440	-13.6871
444	0.199683
448	80.3302
452	85.1103
456	90.7054
460	76.4248
464	-10.8406
468	-17.4828
472	40.7783
476	25.6384
480	-21.3188
484	43.7674
488	35.9892
492	3.59418
496	-2.88736
500	-17.5657
504	6.80101
508	13.3752
512	77.4369
516	154.31
520	119.569
524	19.5827
528	27.1711
532	29.8066
536	-0.822939
540	23.2322
544	73.7698
548	88.0769
552	96.8108
556	57.9963
560	13.9996
564	20.5748
568	-19.6638
572	10.9027
576	5.84494
580	-3.96019
584	-16.3502
588	25.0567
592	-3.14143
596	12.1579
600	-11.3642
604	24.9299
608	-0.369165
612	-27.3803
616	-20.8184
620	5.78778
624	47.6038
628	60.4948
632	228.377
636	365.492
640	524.468
644	442.316
648	452.138
652	314.03
656	202.803
660	1.92037
664	-17.7983
668	-33.0841
672	8.47278
676	-7.8652
680	28.4176
684	31.3417
688	25.1895
692	-8.2272
696	-30.1351
700	-0.449936
704	0.367494
708	41.6887
712	274.172
716	370.196
720	494.79
724	498.94
728	417.022
732	264.006
736	71.6998
740	0.858617
744	-59.3384
748	-17.5953
752	7.82739
756	30.7079
760	2.44468
764	16.3854
768	-2.29935
772	10.1409
776	-2.35708
780	-8.34321
784	-7.68571
788	24.6724
792	20.8611
796	62.6724
800	50.0216
804	34.5284
808	1.6601
812	20.6476
816	41.0099
820	31.2347
824	-3.72846
828	30.334
832	-1.89707
836	-21.7275
840	21.6309
844	-18.5749
848	-7.01123
852	4.79394
856	5.30717
860	112.054
864	68.5378
868	62.4601
872	20.066
876	0.716453
880	14.5733
884	20.677
888	-6.76431
892	25.6894
896	-24.3701
900	0.408384
904	7.15524
908	0.937158
912	5.54716
916	31.2084
920	16.1466
924	60.1953
928	55.5157
932	11.7038
936	8.90969
940	18.2212
944	6.46293
948	19.8805
952	-4.98741
956	19.6661
960	32.9349
964	-25.7212
968	28.5579
972	-30.4711
976	3.36595
980	16.9966
984	-9.66273
988	5.18523
992	-16.0929
996	-19.7466
1000	21.8139
1004	6.62521
1008	32.9292
1012	86.7729
1016	48.7318
1020	50.1681
1024	28.268
1028	5.64431
1032	26.7083
1036	20.909
1040	12.7314
1044	29.7906
1048	27.2452
1052	-20.2376
1056	-9.183
1060	-24.1146
1064	-8.78369
1068	98.3827
1072	334.726
1076	432.018
1080	298.97
1084	68.2676
1088	-3.595
1092	-27.4722
1096	-3.16741
1100	-23.7648
1104	25.7363
1108	-18.6974
1112	1.01013
1116	-19.8186
1120	43.135
1124	-12.1136
1128	47.0351
1132	21.5324
1136	33.0848
1140	70.6529
1144	93.7111
1148	22.3239
1152	8.29776
1156	-5.30228
1160	6.67057
1164	-19.0635
1168	-1.08161
1172	9.66822
1176	-1.42694
1180	69.7931
1184	73.2039
1188	8.16159
1192	4.47986
1196	-3.23463
1200	-14.1426
1204	13.6432
1208	30.7334
1212	19.67
1216	47.0161
1220	5.15941
1224	-8.17092
1228	-6.04028
1232	-3.81805
1236	54.1899
1240	37.8245
1244	71.7292
1248	112.957
1252	12.3973
1256	41.4798
1260	53.0645
1264	-4.45789
1268	-3.56392
1272	15.6298
1276	38.0408
1280	-1.72358
1284	43.2868
1288	27.779
1292	54.0798
1296	-2.39997
1300	44.8079
1304	52.5833
1308	0.857598
1312	-15.2576
1316	29.2029
1320	-12.0913
1324	12.0975
1328	10.1756
1332	20.3042
1336	-13.6043
1340	-5.39251
1344	9.07963
1348	25.4123
1352	41.4714
1356	48.7833
1360	33.0571
1364	28.3576
1368	3.323
1372	18.496
1376	10.1442
1380	36.0622
1384	21.5309
1388	-2.00151
1392	9.21638
1396	3.2
1400	12.5386
1404	-9.84526
1408	25.6715
1412	17.0189
1416	12.2696
1420	-4.80742
1424	-3.3442
1428	9.63864
1432	-8.30923
1436	2.19449
1440	99.3121
1444	67.5248
1448	7.24161
1452	62.7539
1456	46.2079
1460	71.4479
1464	53.4225
1468	36.4067
1472	44.6827
1476	69.2106
1480	-15.6859
1484	17.3788
1488	-38.3903
1492	24.8765
1496	-0.0985481
1500	0.132623
1504	-7.22424
1508	15.4885
1512	24.0886
1516	9.23114
1520	-3.92415
1524	-8.80937
1528	6.61258
1532	33.7716
1536	58.2917
1540	-17.6044
1544	-2.93205
1548	40.2393
1552	46.8191
1556	3.92606
1560	-26.3272
1564	-28.3907
1568	25.9395
1572	132.863
1576	334.843
1580	295.356
1584	75.0448
1588	23.4403
1592	-26.7521
1596	-3.09632
1600	-15.1635
1604	38.6714
1608	17.0188
1612	15.6307
1616	31.3479
1620	46.8414
1624	-23.0879
1628	30.7332
1632	8.32896
1636	25.8888
1640	-7.19472
1644	-5.32997
1648	-1.04194
