Raman shift (cm-1)	intensity
320	0.594962
324	-15.068
328	5.08096
332	5.34503
336	15.1825
340	23.1911
344	7.76886
348	41.7484
352	2.88435
356	-3.58873
360	11.0235
364	-4.27926
368	13.175
372	3.68626
376	9.43629
380	15.6529
384	7.2447
388	-7.60071
392	0.502706
396	-29.7268
400	-24.0885
404	3.68974
408	4.70453
412	126.667
416	236.516
420	355.214
424	388.502
428	334.93
432	204.885
436	51.3603
440	6.34712
444	-26.3537
448	60.0834
452	76.6632
456	17.4795
460	37.4497
464	-10.8489
468	8.51998
472	-27.1225
476	-18.8445
480	3.37034
484	49.1333
488	67.888
492	45.3265
496	6.5714
500	-18.5287
504	0.411661
508	34.0313
512	98.4966
516	227.973
520	237.932
524	233.357
528	207.359
532	168.668
536	138.41
540	43.7862
544	101.893
548	104.931
552	110.436
556	75.294
560	-25.0374
564	18.4485
568	-10.8467
572	-2.64577
576	-7.97472
580	11.7524
584	10.2196
588	-10.8726
592	2.01484
596	-6.57376
600	10.7247
604	-0.594756
608	2.26606
612	19.8504
616	8.22993
620	37.192
624	38.3933
628	-24.6619
632	67.2954
636	8.4383
640	25.6359
644	24.2719
648	45.9408
652	8.20103
656	-7.06336
660	-3.34901
664	31.5068
668	-13.0385
672	25.9022
676	-3.34252
680	5.39571
684	34.5945
688	29.8431
692	22.8675
696	4.56001
700	-11.4577
704	4.81798
708	14.3125
712	56.4444
716	23.4548
720	14.5537
724	-12.0327
728	-1.27201
732	13.104
736	-8.11883
740	8.56424
744	38.7814
748	-12.928
752	26.2542
756	32.519
760	-1.21711
764	14.4873
768	26.8322
772	7.84189
776	45.1421
780	-12.5243
784	28.438
788	15.4292
792	54.6055
796	-3.54379
800	19.7768
804	24.0007
808	7.05096
812	9.21067
816	52.9883
820	36.0799
824	-19.7186
828	23.9599
832	19.8017
836	54.7234
840	47.167
844	10.3203
848	29.0377
852	-21.2613
856	20.8512
860	-8.48668
864	26.1732
868	-2.91477
872	54.2881
876	19.6538
880	-0.933079
884	6.47139
888	23.354
892	-1.08492
896	28.7174
900	-5.74722
904	37.0468
908	7.80396
912	13.6749
916	31.0423
920	-3.19253
924	4.88891
928	36.6419
932	-0.408275
936	21.659
940	21.3289
944	15.0328
948	45.7679
952	11.9799
956	23.8274
960	10.7767
964	1.75528
968	3.44371
972	-2.87517
976	12.3126
980	-4.58609
984	-5.84338
988	21.179
992	18.3901
996	26.563
1000	6.20095
1004	-3.99119
1008	31.1116
1012	35.6627
1016	-3.89892
1020	8.92469
1024	13.6068
1028	11.7634
1032	-3.88414
1036	9.44068
1040	-3.79599
1044	21.3585
1048	3.30694
1052	-16.978
1056	11.4626
1060	-16.8638
1064	-6.44391
1068	57.5731
1072	152.691
1076	239.719
1080	216.891
1084	124.318
1088	19.0756
1092	-22.3
1096	0.143053
1100	-3.06504
1104	15.8773
1108	-12.0347
1112	53.3053
1116	35.587
1120	6.0623
1124	-7.39093
1128	7.39981
1132	42.7925
1136	4.89187
1140	45.5622
1144	2.58328
1148	-5.23685
1152	46.0727
1156	12.9137
1160	-14.2373
1164	7.20539
1168	17.8682
1172	20.8007
1176	20.9186
1180	23.3979
1184	-10.8309
1188	6.22242
1192	13.8724
1196	37.5181
1200	-1.91791
1204	27.3423
1208	23.7285
1212	31.3937
1216	32.733
1220	28.3947
1224	1.2619
1228	36.2734
1232	-23.3593
1236	19.3044
1240	-13.0344
1244	26.2479
1248	90.8865
1252	96.243
1256	91.2304
1260	105.706
1264	49.9628
1268	65.2484
1272	28.3853
1276	2.3318
1280	9.50205
1284	14.3578
1288	-3.72458
1292	22.0418
1296	-3.28105
1300	-2.09985
1304	-3.54809
1308	16.1242
1312	-1.70795
1316	-7.00765
1320	-8.26411
1324	36.0131
1328	11.9763
1332	2.01273
1336	-11.9519
1340	8.95801
1344	-3.08502
1348	28.718
1352	16.9692
1356	7.38823
1360	18.14
1364	1.95887
1368	-1.05747
1372	3.54021
1376	33.424
1380	1.89554
1384	17.1966
1388	5.41841
1392	-5.00573
1396	10.6767
1400	-0.180827
1404	46.0728
1408	-9.93518
1412	27.941
1416	0.290203
1420	-5.49057
1424	16.1172
1428	33.1793
1432	4.26233
1436	-0.801848
1440	-3.86757
1444	21.5324
1448	-7.78017
1452	16.2836
1456	5.01014
1460	4.10696
1464	11.5808
1468	10.719
1472	63.8566
1476	-4.6722
1480	-4.8592
1484	21.1081
1488	20.0582
1492	13.3145
1496	-2.59565
1500	-0.868042
1504	3.50078
1508	6.76851
1512	-6.51482
1516	9.61108
1520	25.5854
1524	5.48443
1528	7.62973
1532	22.7103
1536	-5.95956
1540	25.8724
1544	-12.6167
1548	32.2296
1552	57.589
1556	22.7146
1560	-3.02455
1564	-10.2858
1568	-5.48785
1572	31.0772
1576	130.811
1580	178.263
1584	123.303
1588	57.2496
1592	18.1145
1596	-36.2422
1600	13.2301
1604	-2.85955
1608	27.9963
1612	18.4779
1616	10.6388
1620	30.278
1624	-21.2166
1628	42.7753
1632	21.1013
1636	17.3084
1640	41.2927
1644	-14.8152
1648	4.18771
