Raman shift (cm-1)	intensity
320	2.36438
324	84.1945
328	161.172
332	254.443
336	263.526
340	206.929
344	109.171
348	64.6093
352	2.48441
356	14.5195
360	28.3696
364	53.2624
368	6.93768
372	-15.3124
376	-1.87891
380	-1.22557
384	2.74443
388	38.084
392	3.48145
396	-17.2264
400	60.5598
404	163.881
408	204.261
412	252.691
416	349.952
420	365.334
424	339.931
428	274.123
432	219.662
436	63.4723
440	2.28745
444	27.3747
448	40.5459
452	50.9251
456	45.7463
460	53.8275
464	-19.6407
468	11.9171
472	50.7643
476	10.8824
480	-0.931039
484	21.4856
488	27.6256
492	-2.34851
496	-0.0172768
500	-18.0365
504	104.637
508	252.438
512	465.61
516	665.522
520	660.688
524	543.736
528	314.122
532	174.325
536	39.0527
540	9.70987
544	39.6429
548	43.2069
552	52.7819
556	46.9924
560	24.7362
564	-9.11766
568	-0.809168
572	41.7593
576	-22.3717
580	11.8815
584	60.2038
588	19.6118
592	18.468
596	16.0752
600	28.2914
604	-15.9258
608	12.7152
612	-5.70869
616	6.23283
620	5.10881
624	27.2644
628	5.32731
632	42.0355
636	78.6302
640	55.1238
644	73.1264
648	-0.176431
652	32.8958
656	37.4018
660	14.339
664	16.9039
668	13.5392
672	52.9791
676	45.2436
680	-7.58855
684	20.2104
688	80.1858
692	20.2054
696	49.6589
700	43.8467
704	23.4751
708	1.6303
712	84.5666
716	101.895
720	114.774
724	105.407
728	96.9832
732	69.3271
736	-4.51624
740	29.9071
744	8.52127
748	34.6851
752	-4.17784
756	28.1335
760	-9.7829
764	36.7039
768	36.1246
772	56.6951
776	6.35259
780	45.9256
784	30.2937
788	25.5529
792	36.0784
796	63.7423
800	31.1764
804	42.61
808	19.6627
812	25.7928
816	42.6703
820	28.7653
824	-22.1512
828	11.8493
832	26.8004
836	33.7674
840	53.6233
844	65.3858
848	10.4391
852	21.2379
856	41.463
860	20.3908
864	4.03453
868	9.7224
872	-2.32432
876	-6.15554
880	25.8592
884	18.9939
888	5.4324
892	16.4334
896	47.3512
900	10.4674
904	12.3333
908	21.615
912	23.1446
916	4.43363
920	35.4554
924	60.5227
928	14.4314
932	47.4923
936	53.4761
940	-3.35579
944	33.9514
948	16.7729
952	-5.25216
956	46.8543
960	49.2504
964	1.08055
968	15.5808
972	31.7092
976	0.903629
980	20.4078
984	25.0978
988	-8.96254
992	-3.86432
996	74.8807
1000	86.2251
1004	79.409
1008	-1.07296
1012	62.752
1016	105.961
1020	78.0414
1024	58.0854
1028	59.7294
1032	11.1054
1036	-16.1682
1040	9.0879
1044	-8.27196
1048	-0.238836
1052	-11.2525
1056	-34.9852
1060	-18.6356
1064	61.5172
1068	464.791
1072	1192.25
1076	1878.65
1080	1988.48
1084	1475.9
1088	663.515
1092	74.3216
1096	-13.6195
1100	-11.7696
1104	-28.3908
1108	22.1636
1112	67.5686
1116	-22.2024
1120	19.2426
1124	-8.84913
1128	3.04863
1132	66.5727
1136	148.387
1140	136.197
1144	109.857
1148	62.5856
1152	0.161234
1156	32.3026
1160	-13.4827
1164	16.956
1168	-0.721453
1172	51.7541
1176	109.301
1180	188.346
1184	199.338
1188	172.524
1192	85.7367
1196	-11.9199
1200	22.9325
1204	19.8133
1208	93.8258
1212	74.9331
1216	45.8463
1220	2.07208
1224	24.0714
1228	-18.191
1232	-0.215821
1236	5.66146
1240	2.50249
1244	15.3498
1248	99.4238
1252	170.702
1256	289.569
1260	288.648
1264	361.242
1268	256.177
1272	266.581
1276	184.47
1280	123.525
1284	28.6221
1288	11.7213
1292	35.8225
1296	-8.77401
1300	0.0199423
1304	-5.33778
1308	8.87929
1312	2.84675
1316	13.7962
1320	32.889
1324	60.12
1328	-1.85871
1332	15.3315
1336	-10.6544
1340	5.36877
1344	17.9393
1348	10.9589
1352	22.3192
1356	14.9151
1360	-5.0822
1364	3.3817
1368	8.27569
1372	16.697
1376	-2.6209
1380	21.4961
1384	28.7176
1388	12.1021
1392	89.2302
1396	109.396
1400	173.323
1404	175.339
1408	232.977
1412	221.35
1416	145.164
1420	90.3959
1424	40.9133
1428	25.2086
1432	-10.0849
1436	1.1647
1440	-7.16985
1444	14.4546
1448	7.99755
1452	12.0291
1456	11.0117
1460	5.99962
1464	69.6954
1468	14.6438
1472	50.1323
1476	67.7699
1480	87.3692
1484	55.4107
1488	26.9704
1492	-0.543981
1496	29.0417
1500	20.8429
1504	11.4178
1508	11.7673
1512	-8.37847
1516	38.7733
1520	43.7891
1524	-1.59429
1528	-9.67578
1532	30.0921
1536	13.6485
1540	22.5927
1544	-15.8085
1548	12.9704
1552	25.6584
1556	-13.2166
1560	-36.3153
1564	-13.9614
1568	84.9467
1572	555.948
1576	1155.48
1580	1666.65
1584	1457.3
1588	727.287
1592	155.343
1596	-18.0769
1600	-10.4295
1604	-1.10811
1608	-15.2205
1612	-18.3126
1616	13.409
1620	21.4287
1624	-13.3071
1628	6.24566
1632	25.2863
1636	10.0778
1640	-0.793223
1644	10.7284
1648	4.40925
