Raman shift (cm-1)	intensity
320	25.2124
324	15.1662
328	109.923
332	133.55
336	138.806
340	120.742
344	97.5422
348	50.8056
352	12.6976
356	66.3487
360	-7.54518
364	-3.07162
368	15.6363
372	26.2762
376	5.01742
380	-8.75166
384	34.8748
388	22.8605
392	-25.7114
396	32.0056
400	3.94418
404	156.768
408	398.675
412	590.023
416	641.189
420	501.61
424	394.03
428	262.928
432	134.037
436	15.5672
440	9.05189
444	-15.5874
448	23.0118
452	61.9414
456	19.1626
460	48.8559
464	-17.4258
468	7.3258
472	8.26626
476	17.6658
480	0.367052
484	14.504
488	37.6999
492	-0.0560142
496	-22.5658
500	10.4981
504	36.1626
508	197.928
512	356.388
516	569.006
520	589.635
524	539.237
528	323.3
532	174.59
536	47.8092
540	23.0601
544	-11.6675
548	1.80046
552	56.0459
556	19.9471
560	10.8058
564	-24.7919
568	38.9557
572	-4.50581
576	-6.69082
580	62.1189
584	21.5609
588	12.3468
592	0.329344
596	-6.24081
600	7.96182
604	13.7393
608	12.7175
612	-4.22505
616	12.3647
620	30.2366
624	34.1722
628	25.1732
632	49.26
636	97.6614
640	76.8757
644	121.82
648	85.5542
652	18.5126
656	56.0441
660	41.2846
664	-26.2143
668	25.0284
672	42.0539
676	-1.02094
680	33.1804
684	70.5833
688	74.8066
692	121.382
696	105.458
700	9.00206
704	27.5761
708	41.3253
712	102.734
716	121.807
720	184.256
724	153.35
728	69.7025
732	24.4839
736	6.67951
740	9.73716
744	1.09798
748	-16.9585
752	30.2678
756	13.0921
760	13.4117
764	23.6673
768	1.64499
772	70.2811
776	54.0299
780	48.1315
784	28.2899
788	82.5332
792	28.7294
796	-3.84229
800	50.9896
804	76.4987
808	41.3519
812	5.88058
816	50.2586
820	18.7517
824	1.10911
828	3.43912
832	22.5387
836	50.5043
840	51.6786
844	52.6629
848	69.5307
852	72.2879
856	18.3033
860	37.6087
864	15.3073
868	29.9937
872	-4.69966
876	20.2501
880	11.9127
884	9.4166
888	7.22711
892	52.7784
896	23.3715
900	9.14617
904	46.2727
908	12.7643
912	0.706766
916	30.8521
920	6.78437
924	31.0046
928	43.4669
932	40.0066
936	6.21782
940	55.6087
944	27.3918
948	20.2742
952	9.04965
956	24.3878
960	24.1929
964	13.235
968	26.8315
972	19.3623
976	-12.6099
980	9.3799
984	-11.8493
988	-2.34302
992	8.54134
996	303.082
1000	551.754
1004	309.622
1008	-4.294
1012	-2.95315
1016	80.2777
1020	264.804
1024	394.819
1028	209.516
1032	12.443
1036	-8.19702
1040	-13.9533
1044	5.25387
1048	-24.546
1052	-13.0058
1056	-42.5112
1060	-1.73561
1064	236.753
1068	881.329
1072	1753.43
1076	2393.62
1080	2310.2
1084	1596.3
1088	618.744
1092	49.2129
1096	-45.9419
1100	-24.7557
1104	-25.7006
1108	14.6294
1112	15.284
1116	8.30374
1120	4.11323
1124	21.8168
1128	-9.40371
1132	39.4015
1136	66.8342
1140	65.6342
1144	15.9248
1148	46.985
1152	-16.4342
1156	2.44761
1160	49.0424
1164	22.2189
1168	4.75828
1172	87.9086
1176	131.275
1180	244.887
1184	247.931
1188	133.349
1192	21.9189
1196	4.11903
1200	-3.04791
1204	15.3872
1208	50.1941
1212	55.686
1216	30.2362
1220	50.5549
1224	-17.1998
1228	3.72896
1232	-1.94087
1236	13.4751
1240	24.0707
1244	96.6709
1248	171.34
1252	237.05
1256	308.165
1260	333.104
1264	392.197
1268	348.95
1272	297.162
1276	251.987
1280	153.028
1284	101.62
1288	125.292
1292	55.0447
1296	25.9728
1300	-7.94421
1304	10.2528
1308	16.425
1312	8.15459
1316	-19.0224
1320	36.9819
1324	16.7628
1328	4.11015
1332	12.1964
1336	24.9126
1340	11.6671
1344	3.11769
1348	9.38949
1352	31.9935
1356	-8.483
1360	-5.91082
1364	24.1721
1368	17.3509
1372	8.38445
1376	53.1222
1380	42.2053
1384	21.5649
1388	14.356
1392	58.5633
1396	74.9631
1400	98.9211
1404	89.7689
1408	125.186
1412	115.447
1416	79.33
1420	43.4396
1424	21.3832
1428	-7.23723
1432	2.81799
1436	10.3683
1440	-5.48525
1444	38.1188
1448	72.7718
1452	58.2096
1456	32.474
1460	47.0908
1464	34.018
1468	80.5638
1472	58.1583
1476	75.5768
1480	73.3353
1484	10.1188
1488	14.4415
1492	9.59644
1496	1.9593
1500	9.58119
1504	26.0238
1508	9.61794
1512	1.80485
1516	43.9429
1520	-20.8025
1524	13.0941
1528	36.5518
1532	25.2667
1536	5.98021
1540	-15.8398
1544	-0.987631
1548	-8.71843
1552	14.3785
1556	-7.9267
1560	-22.3806
1564	29.0468
1568	327.135
1572	622.03
1576	1103.42
1580	1364.94
1584	1198.07
1588	575.569
1592	119.533
1596	10.1116
1600	-11.5869
1604	-13.6752
1608	-10.573
1612	26.8141
1616	-8.94396
1620	-6.54452
1624	20.8555
1628	3.60796
1632	12.31
1636	-2.53275
1640	13.7051
1644	26.717
1648	-3.27162
