Raman shift (cm-1)	intensity
320	-17.5336
324	36.7171
328	22.5838
332	38.8996
336	131.262
340	151.857
344	137.818
348	47.9586
352	58.2743
356	43.706
360	-21.4772
364	-14.1451
368	3.37859
372	0.908921
376	-5.46121
380	12.2295
384	31.8198
388	-19.0541
392	-15.122
396	-41.585
400	12.8843
404	1.52444
408	21.6944
412	66.7771
416	179.115
420	297.336
424	355.859
428	321.312
432	204.348
436	6.52675
440	-9.43021
444	19.7325
448	116.621
452	142.14
456	51.2504
460	38.6807
464	-18.7314
468	-16.3965
472	2.19861
476	9.00923
480	-35.6119
484	10.8895
488	56.7828
492	-2.98914
496	12.215
500	-34.7302
504	-7.63081
508	52.6437
512	137.51
516	233.461
520	221.88
524	49.1797
528	35.509
532	-4.06396
536	39.5496
540	12.9688
544	42.6081
548	116.019
552	155.611
556	130.09
560	-20.0753
564	14.6828
568	26.7133
572	12.7743
576	-31.8045
580	5.6002
584	6.34209
588	19.3186
592	11.7578
596	0.465414
600	-15.818
604	21.1441
608	3.69426
612	-19.4766
616	-5.67745
620	-1.31621
624	44.0231
628	46.3364
632	147.912
636	202.38
640	237.785
644	223.557
648	187.641
652	89.6098
656	43.24
660	-4.68859
664	-25.3907
668	-3.06639
672	1.37272
676	-6.93486
680	72.5623
684	44.6372
688	56.5586
692	14.4791
696	-1.08344
700	-22.5943
704	-10.5077
708	19.4321
712	43.3999
716	44.537
720	156.545
724	208.109
728	182.717
732	60.7674
736	1.43299
740	-6.28046
744	-24.9135
748	11.2246
752	92.5963
756	70.4029
760	18.069
764	-15.5191
768	16.1666
772	12.346
776	-11.759
780	11.7153
784	-11.923
788	72.8539
792	43.3693
796	35.3222
800	102.291
804	100.247
808	83.0087
812	9.34193
816	73.8988
820	5.03658
824	30.4222
828	60.5157
832	-15.2789
836	-13.3265
840	43.4407
844	13.0685
848	-9.78222
852	-17.5484
856	54.1287
860	107.717
864	119.248
868	123.47
872	37.5891
876	16.7991
880	10.4502
884	20.1769
888	-5.17454
892	23.0532
896	19.7393
900	-12.0315
904	-0.167397
908	-5.92093
912	28.8336
916	43.8901
920	3.16181
924	63.1788
928	22.3917
932	51.3383
936	4.7012
940	25.2058
944	6.1704
948	2.40906
952	-14.3464
956	5.67967
960	52.6071
964	9.70727
968	-25.2777
972	12.7525
976	-2.95937
980	21.1
984	-17.0963
988	1.13266
992	5.05944
996	26.3615
1000	9.48575
1004	98.3231
1008	-24.901
1012	49.7284
1016	96.6426
1020	49.129
1024	24.6929
1028	-5.49474
1032	39.8344
1036	51.6754
1040	6.46378
1044	-5.63485
1048	16.4286
1052	-20.22
1056	-36.8391
1060	-7.85204
1064	-9.67653
1068	93.2141
1072	352.586
1076	588.88
1080	475.458
1084	235.46
1088	-28.5433
1092	-27.9065
1096	27.4306
1100	20.0323
1104	-12.803
1108	-0.644384
1112	-4.82225
1116	2.96721
1120	45.1015
1124	-12.9422
1128	34.4174
1132	86.3781
1136	127.653
1140	130.229
1144	88.4785
1148	45.8316
1152	3.48077
1156	4.97012
1160	27.4253
1164	-13.1312
1168	-18.3321
1172	8.06827
1176	36.8199
1180	31.2323
1184	63.8135
1188	14.8156
1192	23.8467
1196	-14.4959
1200	-2.06941
1204	28.496
1208	72.7605
1212	58.9307
1216	1.52872
1220	22.0472
1224	29.318
1228	-48.0936
1232	28.9147
1236	5.621
1240	43.5429
1244	109.204
1248	127.8
1252	82.8053
1256	34.5617
1260	37.4025
1264	63.8409
1268	26.9099
1272	10.1846
1276	9.4364
1280	42.0317
1284	21.7608
1288	-10.8988
1292	9.35492
1296	24.3859
1300	40.5479
1304	-3.03882
1308	10.2172
1312	-29.4637
1316	4.87328
1320	25.8193
1324	-13.369
1328	29.8633
1332	-3.69398
1336	45.7228
1340	-1.26079
1344	0.900591
1348	-9.22047
1352	24.3007
1356	33.0807
1360	28.6895
1364	7.81919
1368	32.5451
1372	-9.18683
1376	56.8613
1380	64.6701
1384	9.52723
1388	9.5532
1392	16.8998
1396	9.12231
1400	-7.66314
1404	7.6199
1408	25.8751
1412	36.6273
1416	-9.35038
1420	-16.243
1424	2.57563
1428	19.8961
1432	-29.989
1436	5.2402
1440	73.0339
1444	33.8068
1448	92.2306
1452	15.8246
1456	26.3905
1460	16.9635
1464	78.1683
1468	82.0436
1472	91.6597
1476	34.6733
1480	46.5151
1484	13.241
1488	-29.4393
1492	25.5335
1496	-3.55603
1500	39.95
1504	-16.0962
1508	-10.6896
1512	37.0812
1516	4.26295
1520	13.7975
1524	-14.5442
1528	-6.01889
1532	48.498
1536	5.11804
1540	7.931
1544	-2.31584
1548	5.26135
1552	29.4122
1556	15.4248
1560	-9.73183
1564	-23.0403
1568	-16.6128
1572	107.406
1576	352.715
1580	424.799
1584	114.455
1588	-24.814
1592	-4.09872
1596	-7.88523
1600	19.5981
1604	8.76941
1608	21.6887
1612	12.7127
1616	-1.0215
1620	26.0034
1624	27.9481
1628	-0.567819
1632	-8.38278
1636	18.1826
1640	-23.0193
1644	33.2278
1648	1.31729
