Raman shift (cm-1)	intensity
320	-8.97361
324	11.8996
328	50.9781
332	83.3984
336	93.3833
340	73.3503
344	95.447
348	79.8002
352	67.568
356	15.1664
360	3.20165
364	0.267863
368	-3.70936
372	3.71875
376	62.935
380	1.57901
384	29.5297
388	-28.8411
392	-32.3779
396	-8.07053
400	-36.2098
404	30.7479
408	14.074
412	49.8277
416	196.329
420	329.456
424	316.622
428	230.083
432	44.8725
436	3.41871
440	-2.24324
444	6.15228
448	136.742
452	115.732
456	122.481
460	21.5388
464	-17.3901
468	-19.5105
472	-8.6863
476	-7.74064
480	-12.7762
484	37.052
488	38.8583
492	35.714
496	1.02171
500	-43.3821
504	5.92095
508	103.684
512	85.5644
516	216.191
520	203.286
524	70.6771
528	21.854
532	48.5858
536	28.7782
540	28.9914
544	90.678
548	96.4232
552	132.173
556	99.1497
560	21.2281
564	-0.564671
568	-32.8388
572	12.1734
576	-11.2388
580	-2.51415
584	47.4402
588	27.7605
592	-17.0256
596	38.9665
600	13.1094
604	-7.75997
608	-3.77101
612	2.69848
616	-21.6588
620	-11.3517
624	45.4978
628	20.6632
632	98.6055
636	168.8
640	175.094
644	117.252
648	105.53
652	10.6978
656	24.2314
660	15.328
664	-22.3784
668	-3.74466
672	-14.4123
676	36.0023
680	102.157
684	114.518
688	90.2129
692	30.6263
696	-1.77533
700	-2.38859
704	-3.70607
708	26.0002
712	146.748
716	198.432
720	246.618
724	242.126
728	198.579
732	115.739
736	-8.04991
740	-31.4828
744	-15.1825
748	-15.8227
752	100.994
756	68.9268
760	-9.37547
764	5.87305
768	-0.902257
772	42.5669
776	-10.0954
780	6.6465
784	-10.3299
788	48.647
792	6.62651
796	64.0506
800	59.1655
804	99.9003
808	8.87949
812	1.59291
816	32.4205
820	-11.4519
824	3.44872
828	7.6334
832	15.6893
836	-20.4863
840	1.58615
844	25.0413
848	-13.3503
852	-12.1359
856	-11.4716
860	60.4921
864	80.2919
868	30.2507
872	76.9552
876	31.8503
880	-9.37361
884	13.8436
888	27.0853
892	-12.37
896	23.4449
900	-1.83227
904	4.62182
908	60.0119
912	40.7092
916	42.3841
920	8.45754
924	46.6094
928	97.9261
932	24.0103
936	14.3195
940	21.3783
944	-14.0205
948	22.1718
952	5.45438
956	57.2968
960	46.6737
964	-32.8122
968	11.2813
972	-5.13663
976	-19.6877
980	17.792
984	-16.4791
988	26.5607
992	-27.478
996	60.6304
1000	47.0944
1004	68.782
1008	-1.62789
1012	11.6974
1016	50.1397
1020	80.6669
1024	62.2917
1028	-11.5398
1032	57.5215
1036	10.8539
1040	40.8507
1044	12.999
1048	-27.9176
1052	1.21539
1056	-28.6868
1060	-7.33499
1064	4.5863
1068	204.295
1072	454.584
1076	601.135
1080	439.764
1084	108.907
1088	-11.9785
1092	-30.2245
1096	-23.9281
1100	55.212
1104	-0.111734
1108	-23.4804
1112	-0.721273
1116	2.00783
1120	-19.2043
1124	28.8897
1128	38.3519
1132	65.151
1136	78.4573
1140	117.442
1144	18.9411
1148	24.7899
1152	26.4396
1156	-14.3623
1160	22.5298
1164	-18.8361
1168	-21.2097
1172	-0.939338
1176	32.6274
1180	18.7651
1184	131.578
1188	82.1102
1192	63.1255
1196	-21.5041
1200	-11.7619
1204	9.62063
1208	37.2753
1212	2.47975
1216	27.5209
1220	9.40013
1224	19.4336
1228	-19.5823
1232	2.31408
1236	48.8827
1240	61.5303
1244	62.9738
1248	32.5831
1252	60.4017
1256	81.5081
1260	79.7082
1264	2.27425
1268	71.1495
1272	-16.5565
1276	21.9935
1280	55.5825
1284	-8.30676
1288	2.64335
1292	46.4321
1296	26.0133
1300	25.7777
1304	3.69825
1308	10.4666
1312	-18.8921
1316	-4.21948
1320	32.4381
1324	-3.80804
1328	-0.0547593
1332	42.4202
1336	-6.61937
1340	0.502707
1344	-11.6502
1348	17.1794
1352	71.882
1356	22.4633
1360	51.9065
1364	-0.475033
1368	-11.6997
1372	5.75001
1376	29.3237
1380	51.3367
1384	10.7622
1388	35.9532
1392	-12.2527
1396	24.6896
1400	23.4125
1404	-3.2467
1408	22.4451
1412	3.36717
1416	-22.365
1420	25.8994
1424	-21.3622
1428	27.0905
1432	8.25745
1436	-13.3526
1440	78.5826
1444	74.2151
1448	94.4419
1452	2.45611
1456	60.9205
1460	28.8638
1464	78.3927
1468	98.7847
1472	101.468
1476	12.0086
1480	61.2682
1484	-14.1048
1488	-6.87051
1492	-9.36522
1496	22.7805
1500	-2.89094
1504	-1.01864
1508	-3.91838
1512	42.3812
1516	-2.67706
1520	-5.66621
1524	4.53146
1528	-3.12431
1532	29.7067
1536	4.2682
1540	6.60276
1544	-8.00181
1548	-10.8921
1552	32.8466
1556	-8.40413
1560	-23.8819
1564	-35.5715
1568	52.9546
1572	115.496
1576	375.082
1580	417.758
1584	130.307
1588	-32.8573
1592	-0.76291
1596	-0.858099
1600	5.36653
1604	1.98345
1608	2.27506
1612	-5.59332
1616	42.4013
1620	3.19931
1624	-1.847
1628	24.1202
1632	-11.1812
1636	23.3585
1640	19.5593
1644	-16.9862
1648	-2.65652
