Raman shift (cm-1)	intensity
320	0.554187
324	12.8958
328	-0.242129
332	46.8628
336	76.6564
340	33.4125
344	90.3591
348	30.5115
352	40.9794
356	1.80073
360	-3.01433
364	-23.8405
368	1.1219
372	20.833
376	30.6154
380	-8.04335
384	-5.17066
388	12.4718
392	-24.86
396	-37.3717
400	-9.88501
404	0.703589
408	100.879
412	278.691
416	405.54
420	411.556
424	398.767
428	324.43
432	157.554
436	3.57387
440	10.3846
444	-7.16384
448	148.331
452	154.615
456	142.26
460	82.7837
464	0.984199
468	-43.4937
472	-11.0211
476	-6.19289
480	19.0585
484	12.9388
488	-3.39053
492	26.7153
496	24.1193
500	-38.4645
504	-12.8064
508	108.445
512	130.059
516	213.325
520	267.876
524	173.08
528	38.9489
532	10.6919
536	21.0345
540	71.2949
544	94.433
548	76.0454
552	76.0436
556	47.6584
560	-6.4873
564	11.7224
568	-10.9251
572	-6.04088
576	-23.35
580	8.79074
584	48.0413
588	0.530702
592	-0.0313999
596	-0.546598
600	49.8716
604	23.0597
608	-23.6491
612	12.0209
616	2.92135
620	-4.61517
624	2.98754
628	28.9709
632	170.001
636	200.88
640	240.485
644	197.239
648	65.0419
652	23.6551
656	23.1374
660	-15.7862
664	9.17911
668	-29.631
672	-7.47763
676	-10.5614
680	41.9608
684	120.871
688	54.4532
692	-0.524876
696	6.59349
700	-4.77645
704	23.0553
708	-0.0319793
712	121.729
716	185.807
720	204.358
724	186.345
728	162.505
732	94.1255
736	3.45437
740	2.6829
744	-16.1835
748	54.5843
752	110.183
756	109.368
760	-8.93978
764	-12.248
768	10.4221
772	40.7184
776	5.33262
780	-14.7398
784	-4.64016
788	47.4699
792	25.9641
796	77.6545
800	139.948
804	62.0481
808	47.6286
812	12.5852
816	4.66552
820	3.31254
824	-9.74166
828	80.6368
832	-0.725207
836	12.8625
840	-7.04915
844	-10.1127
848	3.38069
852	-18.6795
856	3.27738
860	60.0163
864	93.6385
868	30.3807
872	22.7313
876	10.2051
880	32.6056
884	-8.50107
888	8.39043
892	-19.3713
896	45.089
900	-6.88904
904	12.4675
908	-8.58486
912	19.4951
916	29.9457
920	44.3574
924	74.1955
928	49.8661
932	62.2677
936	-8.00859
940	24.3467
944	37.046
948	27.4711
952	28.7083
956	19.5136
960	29.5686
964	-16.4966
968	15.5879
972	-16.7262
976	9.01322
980	-20.0132
984	-12.4204
988	-8.62745
992	6.0526
996	45.5298
1000	67.7877
1004	89.2372
1008	1.02022
1012	80.5557
1016	83.3566
1020	87.587
1024	66.8055
1028	26.2478
1032	37.2001
1036	30.5323
1040	-8.41392
1044	-9.26701
1048	-20.634
1052	-22.3347
1056	2.23858
1060	-13.1378
1064	-10.46
1068	232.926
1072	533.99
1076	701.176
1080	509
1084	229.926
1088	19.0451
1092	-48.0455
1096	8.93162
1100	-8.15445
1104	-9.15105
1108	-4.28596
1112	-17.7886
1116	26.93
1120	-0.280641
1124	-10.9814
1128	8.09679
1132	60.2278
1136	61.5975
1140	104.908
1144	61.1897
1148	21.6054
1152	-12.9984
1156	7.4163
1160	27.1891
1164	-11.9184
1168	-5.34259
1172	11.953
1176	-1.51482
1180	22.6248
1184	27.6909
1188	106.558
1192	42.5085
1196	-12.5642
1200	-5.63749
1204	43.5796
1208	86.7986
1212	18.2112
1216	33.6045
1220	13.6832
1224	-5.21713
1228	-25.1255
1232	21.032
1236	7.90208
1240	32.0949
1244	36.5046
1248	90.4523
1252	27.0514
1256	89.0029
1260	1.43681
1264	38.9982
1268	34.5694
1272	22.3211
1276	3.62717
1280	-2.21697
1284	43.5747
1288	0.905882
1292	52.4682
1296	28.8351
1300	30.8001
1304	23.9848
1308	-7.60342
1312	-26.8692
1316	20.6798
1320	17.7975
1324	-12.1353
1328	3.6254
1332	11.3058
1336	14.9643
1340	-12.5511
1344	26.5202
1348	1.13512
1352	30.9865
1356	-8.68533
1360	47.6987
1364	21.8123
1368	-3.50866
1372	4.86106
1376	51.9734
1380	53.5787
1384	33.1972
1388	31.1811
1392	2.85874
1396	-0.280822
1400	23.8481
1404	-10.9357
1408	12.3993
1412	21.214
1416	-2.89627
1420	-13.444
1424	23.919
1428	-7.96633
1432	11.7985
1436	3.00145
1440	80.2618
1444	17.3315
1448	93.8006
1452	-9.79704
1456	58.1214
1460	23.875
1464	31.8438
1468	61.4205
1472	104.494
1476	20.3319
1480	4.29442
1484	12.978
1488	-15.0779
1492	31.9239
1496	-15.0876
1500	13.2359
1504	9.40883
1508	3.16433
1512	20.0064
1516	10.995
1520	22.6782
1524	-16.8813
1528	3.67221
1532	36.3004
1536	19.5652
1540	-9.03098
1544	-15.9479
1548	39.958
1552	10.4929
1556	1.90424
1560	-39.8328
1564	-7.43216
1568	20.9856
1572	113.574
1576	337.57
1580	360.979
1584	163.448
1588	6.96048
1592	-7.24937
1596	-26.2451
1600	5.45554
1604	1.7092
1608	29.9617
1612	-0.528739
1616	38.4415
1620	17.9092
1624	-21.5605
1628	27.8183
1632	-15.54
1636	64.4919
1640	28.6427
1644	-17.0574
1648	-5.12994
