Raman shift (cm-1)	intensity
320	22.4863
324	-24.7523
328	49.5268
332	43.3429
336	107.006
340	46.5701
344	51.3079
348	1.40934
352	76.8809
356	74.0704
360	44.1322
364	-17.9855
368	-2.57894
372	36.6119
376	15.8882
380	16.0208
384	38.2691
388	4.57912
392	-41.0695
396	-12.1041
400	-42.1915
404	3.64854
408	15.1841
412	74.7114
416	128.577
420	351.521
424	372.95
428	343.328
432	175.952
436	1.22287
440	-19.916
444	23.4286
448	193.127
452	196.129
456	138.812
460	53.9858
464	-10.1023
468	-39.747
472	20.3773
476	-9.35876
480	-15.9658
484	47.9835
488	55.5338
492	6.69626
496	-9.80205
500	-27.8198
504	-6.27406
508	12.3569
512	48.3379
516	140.948
520	216.588
524	139.305
528	16.1107
532	41.6812
536	51.8629
540	24.5096
544	91.9178
548	88.7741
552	31.3182
556	116.331
560	-8.06176
564	37.4113
568	-34.8467
572	-2.34397
576	-0.866941
580	-17.0462
584	42.8042
588	31.4794
592	21.269
596	-4.32285
600	-4.75627
604	20.9031
608	-24.8709
612	0.352774
616	-7.407
620	26.441
624	60.1267
628	-19.6314
632	98.1538
636	89.6465
640	70.1546
644	60.9316
648	59.6908
652	-9.71651
656	48.1266
660	3.45122
664	-9.40473
668	1.72821
672	0.925452
676	3.31622
680	51.8876
684	-35.2826
688	94.4122
692	9.02768
696	-1.9656
700	18.3625
704	-0.327694
708	31.4749
712	18.4181
716	48.3598
720	3.06421
724	40.9802
728	39.8807
732	-4.17641
736	12.0629
740	-7.62008
744	-24.147
748	12.4853
752	-13.8659
756	52.5647
760	29.5822
764	-4.88279
768	26.1439
772	54.765
776	6.2235
780	-4.30295
784	11.1927
788	53.9103
792	2.97066
796	83.5607
800	-0.1117
804	73.3586
808	20.3037
812	49.4712
816	63.7671
820	49.0675
824	-26.6942
828	55.5406
832	-11.2215
836	-12.8088
840	42.86
844	85.1037
848	34.7496
852	-20.9123
856	1.23802
860	39.4297
864	21.7985
868	17.4892
872	47.3191
876	34.2596
880	5.14811
884	25.8221
888	49.2363
892	75.2574
896	-18.5832
900	-2.29009
904	37.4445
908	13.783
912	59.4926
916	-1.8713
920	4.20818
924	26.7711
928	41.1751
932	41.7698
936	1.68078
940	-13.2843
944	17.8306
948	13.6304
952	-2.32353
956	59.4291
960	55.4659
964	12.6274
968	-24.0557
972	66.7435
976	5.17329
980	-1.8521
984	-1.83393
988	-10.1908
992	53.8016
996	56.2026
1000	22.3792
1004	38.2829
1008	-23.5803
1012	95.7665
1016	17.2612
1020	57.7852
1024	16.4994
1028	-15.1073
1032	47.6766
1036	76.5031
1040	49.9033
1044	38.9687
1048	-5.60756
1052	-24.3268
1056	-25.5971
1060	2.71714
1064	26.3271
1068	142.601
1072	204.243
1076	218.018
1080	185.929
1084	46.604
1088	-5.68809
1092	-3.94174
1096	24.2049
1100	-15.9621
1104	-3.48622
1108	-0.470713
1112	-13.2779
1116	17.1823
1120	54.6974
1124	-2.34395
1128	26.9822
1132	59.1791
1136	90.709
1140	88.4738
1144	43.3189
1148	13.7883
1152	23.73
1156	9.4197
1160	-5.73283
1164	0.917336
1168	20.3354
1172	-10.2847
1176	-1.77443
1180	39.6986
1184	3.11635
1188	14.0251
1192	-1.17463
1196	-1.43315
1200	29.7
1204	59.0811
1208	65.0134
1212	12.5736
1216	0.0238673
1220	24.4111
1224	-25.4953
1228	-13.3959
1232	51.2419
1236	3.09729
1240	12.092
1244	81.6259
1248	54.728
1252	37.7225
1256	93.3746
1260	72.6088
1264	21.8097
1268	-8.43854
1272	58.8446
1276	19.0524
1280	49.8373
1284	11.1825
1288	26.5696
1292	-1.31595
1296	11.5367
1300	13.961
1304	-5.5267
1308	-3.88012
1312	-18.071
1316	10.8521
1320	24.818
1324	8.39095
1328	38.3914
1332	9.38754
1336	-15.894
1340	26.6281
1344	84.9249
1348	-5.61591
1352	-10.179
1356	16.0191
1360	59.5076
1364	44.3768
1368	8.93798
1372	-1.54478
1376	43.9207
1380	48.2196
1384	-15.0136
1388	5.97439
1392	4.32278
1396	2.1916
1400	6.41044
1404	18.4139
1408	14.5741
1412	24.3806
1416	-4.2071
1420	-0.022639
1424	-3.13529
1428	16.7668
1432	6.07716
1436	-10.0975
1440	54.6712
1444	47.2747
1448	37.0335
1452	18.957
1456	0.202775
1460	47.4673
1464	20.1262
1468	17.4491
1472	53.4196
1476	36.5603
1480	-2.80108
1484	34.9791
1488	28.6469
1492	-13.7623
1496	38.4863
1500	-7.50277
1504	21.6942
1508	-7.44306
1512	41.6953
1516	15.4689
1520	-0.415163
1524	31.9334
1528	-18.7683
1532	26.4635
1536	8.03154
1540	-7.59139
1544	11.8462
1548	-0.899569
1552	73.2346
1556	8.31071
1560	-41.0451
1564	16.2821
1568	11.3115
1572	98.0327
1576	217.155
1580	218.673
1584	104.34
1588	17.0625
1592	-4.37774
1596	8.51499
1600	8.95424
1604	8.61215
1608	19.6347
1612	0.122398
1616	19.3549
1620	13.3153
1624	-6.94651
1628	14.5225
1632	13.3809
1636	3.49435
1640	26.6998
1644	-15.0273
1648	-12.7105
