Raman shift (cm-1)	intensity
320	-8.07292
324	-2.73697
328	3.03588
332	-6.41712
336	28.8385
340	4.64084
344	10.5851
348	30.2752
352	58.193
356	7.90888
360	-3.81531
364	8.46038
368	0.87546
372	5.14276
376	-5.81796
380	6.64228
384	-2.37645
388	15.382
392	-12.0502
396	-19.5358
400	17.947
404	-0.985292
408	3.64464
412	81.5067
416	154.023
420	172.608
424	202.231
428	176.974
432	87.4939
436	36.2288
440	-6.03884
444	-10.4652
448	28.353
452	48.9663
456	4.41574
460	34.4628
464	5.21094
468	-19.6157
472	5.07595
476	-11.9962
480	9.1227
484	20.3747
488	9.48559
492	35.7329
496	15.608
500	-16.3869
504	-4.81145
508	12.5555
512	72.284
516	133.715
520	127.389
524	122.915
528	96.2008
532	11.6284
536	35.1103
540	7.6932
544	27.7363
548	47.4135
552	39.7339
556	18.633
560	-3.43509
564	5.53587
568	29.3493
572	-15.7879
576	20.3819
580	10.4627
584	4.5054
588	19.9831
592	-0.660296
596	-2.08476
600	-3.66562
604	7.14848
608	-11.1665
612	15.6339
616	-6.39453
620	43.6605
624	43.4923
628	30.4027
632	24.7072
636	-2.8925
640	21.6644
644	36.3509
648	4.63373
652	30.7347
656	36.5827
660	-8.72311
664	16.3769
668	27.6415
672	-0.15977
676	-5.39013
680	45.816
684	19.2421
688	12.1995
692	29.8632
696	-0.788569
700	-4.70216
704	39.1616
708	21.1527
712	28.7007
716	16.8052
720	9.78862
724	-0.707222
728	33.0821
732	-6.32445
736	-6.03846
740	-2.17169
744	10.3484
748	36.4477
752	-14.3834
756	44.862
760	54.8709
764	4.23196
768	7.65754
772	17.0749
776	19.6517
780	10.2885
784	-3.0849
788	8.97201
792	34.7229
796	13.4852
800	30.4985
804	8.27413
808	0.836006
812	24.2237
816	6.38423
820	27.0707
824	-12.1838
828	11.7707
832	-4.30484
836	32.6997
840	-1.71806
844	18.3753
848	1.36098
852	-1.78202
856	-0.236527
860	-8.1429
864	14.442
868	36.0388
872	14.2144
876	9.17167
880	18.7121
884	12.3929
888	19.2711
892	4.44461
896	15.3212
900	-10.8232
904	19.3119
908	25.8445
912	5.18976
916	4.20786
920	9.75806
924	7.94726
928	26.3402
932	14.7931
936	5.67428
940	21.956
944	-7.22945
948	24.8575
952	2.64121
956	3.168
960	9.59382
964	29.2729
968	13.2506
972	4.98707
976	13.7372
980	-5.21413
984	-1.24024
988	18.618
992	46.2739
996	-1.06296
1000	11.8508
1004	28.5258
1008	10.0954
1012	-2.31155
1016	23.2296
1020	0.154061
1024	-3.01644
1028	25.8763
1032	11.7076
1036	17.1728
1040	26.9248
1044	-21.0871
1048	19.2417
1052	-15.3639
1056	1.1929
1060	-15.7227
1064	-8.50128
1068	26.205
1072	187.597
1076	250.85
1080	185.846
1084	38.4758
1088	33.7609
1092	-18.2219
1096	-5.37783
1100	-15.566
1104	33.653
1108	7.25022
1112	14.2636
1116	-8.72375
1120	29.9844
1124	-7.23117
1128	41.0644
1132	-17.7748
1136	38.5814
1140	65.6829
1144	19.7615
1148	30.5254
1152	20.5711
1156	22.3735
1160	-0.315505
1164	51.3665
1168	11.0503
1172	-5.58989
1176	27.94
1180	42.9677
1184	7.60977
1188	9.33023
1192	32.8893
1196	-15.2294
1200	30.1499
1204	14.147
1208	38.0556
1212	8.50941
1216	-2.1292
1220	-0.259471
1224	24.1173
1228	-18.5598
1232	11.2705
1236	10.2722
1240	15.9502
1244	-4.29161
1248	39.953
1252	60.1764
1256	41.4128
1260	21.4612
1264	28.3044
1268	38.6378
1272	10.6653
1276	25.2559
1280	5.13904
1284	-6.47192
1288	29.6053
1292	12.3015
1296	15.9458
1300	12.7372
1304	-0.429554
1308	13.5157
1312	-12.4974
1316	12.8001
1320	25.1996
1324	-4.44689
1328	35.2712
1332	22.7428
1336	5.45671
1340	-3.88158
1344	-2.20226
1348	9.22646
1352	8.76402
1356	23.6703
1360	24.8551
1364	19.2515
1368	28.6787
1372	7.57859
1376	20.7425
1380	7.12441
1384	16.0087
1388	4.66008
1392	14.8202
1396	-0.219829
1400	16.5731
1404	12.8796
1408	-3.27485
1412	26.2924
1416	14.4651
1420	5.17984
1424	18.1358
1428	25.6862
1432	5.05991
1436	10.6458
1440	-6.85912
1444	-2.7506
1448	18.6746
1452	-2.65144
1456	16.3151
1460	-1.63281
1464	15.8636
1468	-4.34122
1472	19.7319
1476	28.7222
1480	-3.74797
1484	11.9751
1488	20.7539
1492	7.10169
1496	1.37133
1500	22.9077
1504	-12.7278
1508	34.6182
1512	46.1475
1516	-14.9317
1520	43.1201
1524	36.5473
1528	5.60193
1532	20.2238
1536	-8.34084
1540	-0.779493
1544	5.65236
1548	7.1414
1552	11.4905
1556	14.3492
1560	-12.9088
1564	3.76141
1568	9.04952
1572	105.201
1576	167.244
1580	217.351
1584	167.459
1588	26.7576
1592	-6.09211
1596	-8.89355
1600	-10.4659
1604	23.3399
1608	26.0671
1612	-5.83512
1616	-2.19852
1620	12.7956
1624	-10.8343
1628	36.6504
1632	8.40044
1636	37.6019
1640	7.00169
1644	-13.6676
1648	-6.55047
