Raman shift (cm-1)	intensity
320	-11.5045
324	3.94079
328	62.4247
332	104.116
336	114.694
340	107.903
344	69.1717
348	51.1192
352	68.4245
356	77.5667
360	-12.9728
364	24.2365
368	36.8234
372	26.0911
376	0.910524
380	-29.3131
384	8.35695
388	13.1405
392	-14.8269
396	-18.3554
400	-1.30198
404	-11.2521
408	59.0205
412	128.591
416	111.218
420	156.237
424	176.546
428	67.4606
432	63.2034
436	15.5303
440	-11.3946
444	-7.0982
448	59.2114
452	70.695
456	88.2132
460	58.3846
464	3.40705
468	-24.0886
472	31.6455
476	-10.8723
480	31.318
484	49.0122
488	30.7554
492	-12.3685
496	2.01761
500	-15.5319
504	-7.90028
508	4.64917
512	46.9335
516	158.021
520	113.507
524	92.5768
528	2.32018
532	13.8473
536	73.7039
540	30.2002
544	-6.9174
548	35.6184
552	57.6573
556	13.4098
560	3.21771
564	20.3117
568	-11.486
572	-7.68602
576	16.0472
580	-3.07097
584	44.2599
588	-7.88786
592	16.4673
596	25.482
600	10.5299
604	-0.328907
608	-4.96697
612	22.6756
616	44.8674
620	28.5628
624	2.99636
628	-13.5459
632	64.6768
636	68.7368
640	15.6948
644	7.47902
648	1.4489
652	20.6171
656	35.3357
660	-16.2505
664	44.1699
668	32.642
672	25.0958
676	3.87563
680	-17.393
684	19.0205
688	38.5809
692	95.8118
696	54.2021
700	12.1735
704	-4.40605
708	3.76721
712	26.0353
716	21.6683
720	48.2894
724	-8.68184
728	24.9561
732	-9.113
736	1.62423
740	-5.92368
744	-0.64797
748	-5.73146
752	12.1863
756	4.64593
760	-8.30489
764	39.9813
768	29.3085
772	22.9387
776	11.1957
780	20.5101
784	3.55195
788	16.3026
792	62.8524
796	37.4827
800	52.1369
804	2.06499
808	17.8924
812	15.4481
816	-3.72999
820	37.7352
824	-9.07205
828	-6.46765
832	34.1158
836	9.4077
840	1.37168
844	25.2434
848	-7.51799
852	31.2711
856	-24.7798
860	20.7672
864	-2.6803
868	40.5557
872	17.559
876	7.40422
880	-14.4039
884	69.3332
888	-17.8016
892	45.3229
896	38.0076
900	6.15698
904	26.3956
908	2.94423
912	-0.0310574
916	52.4166
920	-12.6973
924	55.7681
928	46.1735
932	47.3888
936	8.06768
940	0.277579
944	15.6508
948	9.43375
952	40.7204
956	3.32109
960	26.0038
964	-26.7884
968	12.3983
972	6.99571
976	-5.09537
980	30.7274
984	12.0042
988	-13.8392
992	23.9088
996	5.44033
1000	81.6182
1004	91.2296
1008	-7.43535
1012	59.6181
1016	65.8262
1020	17.1169
1024	29.8289
1028	16.2653
1032	32.8797
1036	-14.1329
1040	72.6069
1044	-11.6033
1048	0.906534
1052	-26.9919
1056	-8.98967
1060	-5.98685
1064	20.4524
1068	173.332
1072	362.877
1076	539.036
1080	416.611
1084	224.422
1088	11.5304
1092	-26.73
1096	-23.2448
1100	-11.7954
1104	-1.88828
1108	-0.0235709
1112	9.13261
1116	25.7538
1120	26.917
1124	-15.1814
1128	-0.396709
1132	35.7238
1136	67.5006
1140	74.3346
1144	56.9504
1148	12.6592
1152	36.5213
1156	12.769
1160	7.02953
1164	-20.7811
1168	13.338
1172	10.8714
1176	38.4348
1180	35.7372
1184	13.7252
1188	2.6667
1192	24.9998
1196	6.77552
1200	4.35609
1204	57.358
1208	48.3321
1212	23.1424
1216	22.6869
1220	20.4085
1224	25.2858
1228	-17.3555
1232	12.3091
1236	13.4919
1240	0.50686
1244	21.8859
1248	17.7795
1252	20.7111
1256	79.5835
1260	51.3349
1264	-2.09026
1268	55.5138
1272	4.14491
1276	20.5292
1280	-9.24261
1284	19.1588
1288	-11.6698
1292	12.7154
1296	-3.00164
1300	-9.67117
1304	62.8178
1308	-8.42888
1312	-8.54935
1316	48.9414
1320	-12.1391
1324	18.5322
1328	20.5541
1332	37.5733
1336	-12.0372
1340	-0.878366
1344	46.2435
1348	1.01522
1352	29.9884
1356	51.2104
1360	35.9327
1364	-4.27481
1368	-18.3732
1372	45.1607
1376	4.95643
1380	2.16416
1384	36.4325
1388	18.906
1392	10.2952
1396	29.8258
1400	-6.67532
1404	1.38187
1408	24.3294
1412	-8.19548
1416	25.0891
1420	-4.15318
1424	-4.60501
1428	8.13414
1432	4.7463
1436	-7.84935
1440	33.4886
1444	9.63145
1448	8.68876
1452	30.7936
1456	47.5683
1460	26.482
1464	-22.8897
1468	6.10076
1472	63.6818
1476	42.7062
1480	24.9294
1484	66.298
1488	-28.5191
1492	45.2329
1496	-0.442712
1500	12.1435
1504	6.15852
1508	-1.2958
1512	44.3474
1516	-19.6315
1520	50.3472
1524	0.639826
1528	-4.31699
1532	23.5427
1536	10.266
1540	-2.80988
1544	4.70009
1548	-3.4213
1552	19.3886
1556	-13.4469
1560	-46.8349
1564	18.3601
1568	39.4201
1572	100.323
1576	350.029
1580	371.751
1584	202.883
1588	30.391
1592	-13.6307
1596	-38.673
1600	-23.7384
1604	8.62349
1608	48.0813
1612	1.30428
1616	2.12213
1620	7.70173
1624	-5.91188
1628	4.26318
1632	16.7848
1636	6.83237
1640	38.7406
1644	-12.1617
1648	-8.22774
