Raman shift (cm-1)	intensity
320	-12.2545
324	16.4872
328	13.8622
332	46.1854
336	84.7396
340	116.467
344	116.178
348	117.617
352	42.966
356	45.7366
360	4.11831
364	22.4008
368	-16.0256
372	9.98989
376	-0.30225
380	-1.80644
384	-9.82936
388	27.2645
392	-37.0915
396	5.95976
400	-11.2688
404	8.0575
408	75.4259
412	19.4079
416	159.812
420	178.485
424	200.915
428	92.4143
432	78.9798
436	-5.30778
440	-0.285206
444	3.5707
448	62.4049
452	85.6625
456	44.5172
460	29.1396
464	-34.9375
468	13.3447
472	6.4358
476	-0.175798
480	10.529
484	30.6094
488	13.1422
492	9.78238
496	-0.778127
500	-27.8285
504	-6.13717
508	41.9359
512	78.7567
516	153.717
520	126.284
524	95.3734
528	25.1512
532	68.7117
536	14.1041
540	-7.06631
544	7.71331
548	12.4964
552	74.0124
556	39.2998
560	-0.298193
564	-10.6828
568	39.4072
572	17.8746
576	-12.8806
580	14.9707
584	90.13
588	70.4786
592	-23.7214
596	25.7013
600	40.0775
604	26.6966
608	20.796
612	-2.91772
616	1.53394
620	-18.7326
624	0.846562
628	-11.4782
632	36.4223
636	6.67512
640	12.4511
644	57.3211
648	-13.5238
652	26.7521
656	2.37006
660	26.3378
664	0.31506
668	2.88482
672	36.0258
676	-19.7767
680	61.2103
684	-5.38039
688	32.4052
692	59.1732
696	13.6582
700	4.80722
704	-0.149403
708	-1.10818
712	52.716
716	-1.20381
720	16.675
724	-0.491844
728	-2.89437
732	-9.96429
736	-10.9873
740	12.8212
744	-1.98785
748	-1.03172
752	-3.16315
756	-0.435032
760	41.638
764	-5.0804
768	27.6134
772	43.2745
776	46.3469
780	41.0684
784	-9.62006
788	31.5823
792	54.579
796	14.168
800	53.8102
804	-13.3683
808	8.37916
812	26.7433
816	12.9618
820	16.9168
824	-0.0981177
828	-0.27527
832	20.1302
836	-3.79001
840	28.8458
844	13.6336
848	-0.0538185
852	9.90919
856	-30.0696
860	27.9682
864	6.20487
868	1.90935
872	5.44087
876	-20.0942
880	20.8385
884	-0.457301
888	27.0758
892	40.889
896	1.57191
900	29.4867
904	19.6413
908	-3.7379
912	68.6353
916	26.839
920	-1.75551
924	61.3913
928	61.6457
932	5.14339
936	6.14536
940	21.2343
944	29.6903
948	25.1555
952	-20.0832
956	53.9411
960	1.35592
964	-16.5586
968	50.3096
972	-6.29568
976	2.40952
980	35.3455
984	-1.72779
988	-16.7648
992	21.59
996	74.4874
1000	106.273
1004	73.8556
1008	-12.1341
1012	65.4016
1016	6.929
1020	58.7341
1024	63.397
1028	12.636
1032	11.2055
1036	7.3488
1040	50.0345
1044	-9.05066
1048	-3.97645
1052	-31.5251
1056	-15.9176
1060	-7.1497
1064	16.185
1068	271.028
1072	534.578
1076	687.999
1080	571.978
1084	292.176
1088	48.1214
1092	-39.4438
1096	-16.3379
1100	-18.8179
1104	39.343
1108	14.6761
1112	7.05931
1116	17.4614
1120	-1.06775
1124	31.4487
1128	20.0934
1132	10.0092
1136	28.539
1140	94.8917
1144	49.9354
1148	-18.058
1152	39.4148
1156	9.29527
1160	23.639
1164	4.02024
1168	11.4919
1172	-1.89982
1176	17.8566
1180	75.3077
1184	60.6419
1188	-31.9819
1192	10.2603
1196	15.7645
1200	-21.8053
1204	49.1091
1208	69.4499
1212	46.1554
1216	9.91237
1220	28.7129
1224	-11.9929
1228	-1.6512
1232	25.6414
1236	25.8424
1240	-2.15517
1244	27.195
1248	28.0253
1252	29.5086
1256	78.9037
1260	85.3969
1264	17.2209
1268	47.4604
1272	6.96925
1276	42.2542
1280	-3.04481
1284	53.038
1288	-7.88861
1292	5.1818
1296	2.96757
1300	2.21496
1304	20.9042
1308	-24.3365
1312	25.1221
1316	-3.5872
1320	21.1579
1324	-6.01008
1328	70.6383
1332	40.3599
1336	-9.83243
1340	-2.00988
1344	24.9937
1348	36.8294
1352	-21.3713
1356	46.5798
1360	15.877
1364	40.8902
1368	10.3573
1372	9.01169
1376	35.5557
1380	20.8505
1384	-19.0891
1388	36.6866
1392	6.75731
1396	20.3486
1400	-5.65083
1404	12.6446
1408	-2.7671
1412	0.437784
1416	-2.52411
1420	39.9247
1424	-8.04786
1428	33.5792
1432	-14.7395
1436	9.05566
1440	64.1682
1444	-10.4194
1448	-14.8854
1452	59.266
1456	45.5022
1460	43.6004
1464	1.62184
1468	0.237386
1472	35.0742
1476	27.4876
1480	11.9685
1484	27.8925
1488	-1.46931
1492	18.9154
1496	-16.5446
1500	19.7999
1504	12.6105
1508	14.03
1512	1.00223
1516	1.8654
1520	43.8439
1524	3.57459
1528	30.2143
1532	-4.03502
1536	6.04599
1540	-6.34977
1544	20.9141
1548	-2.81303
1552	16.7113
1556	-27.3496
1560	-33.6931
1564	36.6808
1568	33.5408
1572	114.869
1576	396.858
1580	471.129
1584	321.128
1588	44.1706
1592	5.07008
1596	-50.1577
1600	45.7249
1604	20.2662
1608	44.9874
1612	29.7059
1616	-29.459
1620	21.7209
1624	-14.7253
1628	34.1404
1632	42.8413
1636	-6.85098
1640	2.90526
1644	1.66135
1648	-18.8013
