Raman shift (cm-1)	intensity
320	-25.3064
324	-4.38918
328	19.7554
332	31.0531
336	113.777
340	50.8366
344	56.1965
348	67.906
352	74.8755
356	47.872
360	-2.76141
364	-1.91515
368	43.9563
372	1.98236
376	-6.36963
380	4.99122
384	5.44095
388	-20.667
392	-50.4041
396	33.742
400	10.5871
404	20.2555
408	196.368
412	287.807
416	289.843
420	278.199
424	204.768
428	57.9406
432	13.521
436	-18.1517
440	-19.7592
444	2.38159
448	14.5651
452	42.5349
456	20.4317
460	12.4598
464	-22.2282
468	16.4681
472	46.8703
476	-4.90366
480	31.9932
484	2.28231
488	29.2436
492	34.8846
496	-5.75617
500	-26.0226
504	-2.55616
508	1.7764
512	137.177
516	167.055
520	203.114
524	56.2537
528	-6.96425
532	28.1268
536	4.67367
540	9.20109
544	11.8383
548	53.7151
552	25.3118
556	35.5251
560	-5.66646
564	-17.6631
568	11.0203
572	21.329
576	20.7823
580	-6.06393
584	78.0701
588	30.5548
592	-30.4863
596	41.7359
600	6.70274
604	35.0547
608	-5.61966
612	22.0221
616	-28.7998
620	24.5217
624	83.6084
628	-17.4663
632	68.0295
636	84.5211
640	40.4168
644	0.283997
648	7.50818
652	40.4543
656	20.6727
660	2.43293
664	8.27336
668	-9.05538
672	22.8065
676	1.63552
680	-4.04046
684	26.6925
688	82.726
692	77.8306
696	26.9201
700	38.1075
704	1.13295
708	20.3891
712	1.90612
716	-4.67294
720	21.1423
724	-28.0762
728	42.74
732	-4.13196
736	18.5336
740	-9.8806
744	2.62031
748	16.8501
752	-17.5367
756	19.0288
760	23.7714
764	-17.1219
768	73.8127
772	37.0643
776	-2.96491
780	28.5168
784	19.6382
788	79.8918
792	1.33706
796	58.1937
800	15.1058
804	46.501
808	-4.00618
812	67.2814
816	42.9323
820	26.4198
824	1.86427
828	30.8783
832	-31.8481
836	55.5641
840	68.4489
844	41.5127
848	26.6086
852	-18.2371
856	-3.6652
860	36.5071
864	-3.3238
868	5.18956
872	14.6801
876	5.81712
880	15.6581
884	14.4767
888	38.1294
892	71.0434
896	-11.9239
900	12.2421
904	26.0395
908	23.0285
912	52.7237
916	26.9018
920	0.196185
924	70.1313
928	49.8628
932	52.4544
936	6.00114
940	6.16654
944	14.931
948	9.43643
952	2.23428
956	25.03
960	41.2428
964	9.46897
968	19.0273
972	-12.2177
976	50.836
980	5.94833
984	-20.7497
988	17.9015
992	-1.00305
996	67.9205
1000	162.35
1004	115.647
1008	-5.22406
1012	7.75173
1016	25.8023
1020	126.827
1024	129.689
1028	37.4731
1032	0.765137
1036	23.1469
1040	31.4496
1044	21.5474
1048	-21.1703
1052	-29.0197
1056	1.04069
1060	-30.2708
1064	43.1446
1068	320.738
1072	577.719
1076	621.756
1080	517.016
1084	233.676
1088	-2.15779
1092	-7.32497
1096	-23.2505
1100	-19.5014
1104	42.0151
1108	-15.5129
1112	8.25782
1116	55.9783
1120	25.4924
1124	-21.2323
1128	47.6376
1132	12.3821
1136	-5.06651
1140	71.9572
1144	18.3597
1148	-1.90761
1152	48.6776
1156	-16.065
1160	-6.69579
1164	0.0983023
1168	-9.33613
1172	18.7716
1176	13.0557
1180	73.1664
1184	27.2695
1188	7.41872
1192	19.6577
1196	-13.3891
1200	29.1758
1204	46.9123
1208	18.5685
1212	32.7331
1216	6.75184
1220	13.6148
1224	3.90481
1228	8.33897
1232	15.7818
1236	6.05805
1240	-8.44874
1244	34.7734
1248	52.8336
1252	10.4337
1256	57.7615
1260	100.304
1264	-12.5874
1268	39.0458
1272	34.3378
1276	-13.4601
1280	0.0885188
1284	42.2422
1288	-2.56282
1292	7.99247
1296	-2.05884
1300	36.3383
1304	-8.67676
1308	-15.0864
1312	60.338
1316	-4.348
1320	51.8148
1324	-10.5226
1328	21.5405
1332	5.71151
1336	3.27726
1340	15.271
1344	28.4016
1348	28.5795
1352	4.23192
1356	33.3508
1360	20.0203
1364	5.55046
1368	24.4469
1372	34.0954
1376	51.4698
1380	-16.4021
1384	5.59163
1388	52.1202
1392	36.1144
1396	16.0398
1400	48.8433
1404	0.298414
1408	-6.6566
1412	8.66882
1416	4.25324
1420	20.8212
1424	13.3207
1428	-1.93927
1432	-11.9718
1436	24.9767
1440	39.6789
1444	8.53718
1448	-8.56852
1452	26.1121
1456	20.0366
1460	7.46917
1464	-15.5047
1468	70.7523
1472	100.282
1476	17.5988
1480	-0.76717
1484	20.3126
1488	42.638
1492	20.8395
1496	-24.3556
1500	9.02593
1504	46.0583
1508	34.734
1512	3.63284
1516	-10.8199
1520	10.9502
1524	45.5197
1528	-16.5229
1532	37.7107
1536	27.6055
1540	1.95157
1544	-11.9705
1548	16.6655
1552	-17.4686
1556	-7.48843
1560	-11.2541
1564	29.6035
1568	66.0199
1572	73.7243
1576	325.981
1580	382.414
1584	274.938
1588	24.0625
1592	-29.7538
1596	-36.1408
1600	19.3191
1604	5.37384
1608	46.6544
1612	-8.62489
1616	-14.3612
1620	50.5197
1624	30.5721
1628	10.8149
1632	8.19761
1636	17.5523
1640	-4.5832
1644	24.6311
1648	8.64593
