Raman shift (cm-1)	intensity
320	5.49579
324	11.1602
328	13.7143
332	14.7876
336	21.793
340	58.9391
344	60.8719
348	34.284
352	108.079
356	58.5365
360	60.9947
364	-8.64863
368	22.0646
372	11.3339
376	-1.95734
380	29.5198
384	0.300734
388	11.724
392	6.83464
396	-1.56344
400	-6.86049
404	8.932
408	37.513
412	120.135
416	114.227
420	106.94
424	133.405
428	127.739
432	39.8499
436	6.01307
440	12.0973
444	10.4405
448	55.4209
452	2.24336
456	17.5975
460	11.2626
464	-12.2367
468	23.7979
472	-4.92621
476	3.76891
480	0.851813
484	2.20801
488	-0.435614
492	6.44723
496	-4.99479
500	-7.41074
504	39.9853
508	97.4704
512	195.267
516	208.636
520	288.487
524	205.67
528	146.26
532	90.0531
536	50.5624
540	59.0297
544	9.78822
548	24.5059
552	36.5387
556	48.6185
560	9.17445
564	-5.61383
568	35.1895
572	-10.9749
576	-2.08898
580	39.1959
584	18.6439
588	-0.289991
592	10.15
596	0.185999
600	12.0365
604	6.73507
608	15.9463
612	-8.66212
616	29.9976
620	44.1016
624	28.2799
628	20.9442
632	20.8243
636	18.7434
640	13.273
644	32.5399
648	22.5307
652	10.04
656	7.57661
660	14.7966
664	29.0662
668	23.718
672	50.015
676	11.6828
680	0.878303
684	52.3512
688	41.4983
692	24.9575
696	27.2103
700	-5.57294
704	11.7589
708	31.9302
712	80.4219
716	87.1906
720	44.883
724	37.0082
728	2.46754
732	31.507
736	8.24196
740	2.73298
744	-2.14899
748	9.64321
752	38.1376
756	0.61549
760	38.5794
764	13.7181
768	-2.57218
772	45.4607
776	3.86843
780	33.76
784	46.0675
788	37.0231
792	23.1972
796	44.539
800	-2.20079
804	60.3279
808	32.2004
812	8.94593
816	21.3092
820	45.6918
824	24.104
828	1.12871
832	16.9965
836	50.183
840	45.3561
844	31.1708
848	8.33285
852	12.5135
856	17.283
860	-9.25699
864	11.727
868	45.4368
872	31.2304
876	-4.69564
880	20.7
884	3.06698
888	12.7523
892	24.1712
896	16.5919
900	-1.38644
904	33.9517
908	20.4932
912	26.5344
916	7.14834
920	11.0317
924	20.0432
928	-4.99978
932	54.4393
936	30.6903
940	3.76793
944	26.7972
948	38.4843
952	20.53
956	12.6337
960	0.367148
964	1.22688
968	2.00121
972	26.8583
976	20.0008
980	7.49224
984	20.4279
988	-6.06243
992	25.1454
996	21.3515
1000	61.4164
1004	10.1458
1008	53.5552
1012	9.41733
1016	49.4314
1020	36.7021
1024	58.6336
1028	-7.44945
1032	15.3799
1036	16.9167
1040	-5.16195
1044	-13.1096
1048	8.23329
1052	-22.8084
1056	-24.9811
1060	14.1385
1064	79.8732
1068	348.828
1072	653.567
1076	779.745
1080	715.159
1084	403.008
1088	146.868
1092	-9.41388
1096	3.03086
1100	-34.5563
1104	-4.79541
1108	19.0158
1112	1.92594
1116	-4.67876
1120	1.24017
1124	24.722
1128	-7.42191
1132	76.0908
1136	8.95978
1140	37.4608
1144	51.6442
1148	26.7452
1152	2.7658
1156	12.3574
1160	8.24274
1164	-3.45475
1168	35.4707
1172	70.3586
1176	99.3051
1180	120.647
1184	96.1241
1188	10.8737
1192	13.6707
1196	-0.291106
1200	5.62307
1204	27.0362
1208	49.2192
1212	24.0381
1216	-1.03524
1220	56.4525
1224	-19.6409
1228	29.2132
1232	41.2692
1236	20.0855
1240	24.3332
1244	12.4944
1248	57.0625
1252	79.6853
1256	56.2532
1260	79.4266
1264	60.4804
1268	64.0478
1272	57.6488
1276	47.9618
1280	13.0093
1284	41.8135
1288	19.3298
1292	29.791
1296	17.4273
1300	-2.91882
1304	30.3298
1308	0.300967
1312	5.17545
1316	11.4463
1320	-0.539125
1324	9.13289
1328	-0.707078
1332	0.501897
1336	8.74295
1340	28.3522
1344	4.00797
1348	3.89195
1352	22.1784
1356	23.3258
1360	20.8285
1364	0.327
1368	39.7738
1372	50.2574
1376	19.8971
1380	31.5993
1384	18.5906
1388	5.36884
1392	22.338
1396	8.10277
1400	11.8678
1404	51.7107
1408	5.88989
1412	12.3228
1416	24.6378
1420	19.1406
1424	29.6132
1428	28.7101
1432	11.5333
1436	64.5667
1440	-8.7183
1444	7.95471
1448	58.6997
1452	46.1359
1456	14.6779
1460	0.789839
1464	-7.94943
1468	50.1486
1472	35.0447
1476	48.9259
1480	61.5197
1484	25.1307
1488	4.14472
1492	22.7945
1496	8.62536
1500	27.9746
1504	15.2201
1508	5.81826
1512	16.5024
1516	11.3786
1520	15.497
1524	1.64092
1528	0.302074
1532	19.7333
1536	12.2884
1540	7.94056
1544	-11.3482
1548	20.0886
1552	22.8708
1556	-10.5044
1560	-0.30115
1564	73.1409
1568	230.939
1572	502.213
1576	619.613
1580	672.873
1584	495.383
1588	259.453
1592	94.3654
1596	-13.6017
1600	3.08763
1604	-10.2521
1608	40.1764
1612	10.71
1616	9.20715
1620	25.5993
1624	0.170573
1628	35.3077
1632	12.7401
1636	45.4081
1640	2.6257
1644	13.1282
1648	-12.067
