Raman shift (cm-1)	intensity
320	3.7208
324	3.47601
328	46.5095
332	85.3307
336	76.3501
340	106.665
344	126.757
348	110.043
352	97.9609
356	82.8059
360	65.4427
364	13.1836
368	37.2101
372	5.6565
376	9.89957
380	5.32668
384	-8.8158
388	-5.60621
392	-7.20182
396	23.3881
400	43.3881
404	3.68574
408	15.7517
412	61.8563
416	122.578
420	135.696
424	119.941
428	107.885
432	46.1789
436	22.9016
440	10.793
444	18.6316
448	21.562
452	17.5631
456	8.51184
460	2.86854
464	-3.62874
468	0.346852
472	-2.56083
476	12.8148
480	-1.03585
484	-3.24191
488	26.1335
492	14.5227
496	0.381766
500	-5.65723
504	27.8321
508	87.8227
512	203.812
516	270.522
520	256.038
524	221.616
528	138.207
532	93.0181
536	31.2685
540	22.9031
544	26.3352
548	8.32187
552	22.3723
556	21.3548
560	10.9757
564	19.1518
568	0.935008
572	-5.06646
576	-2.48907
580	-8.58414
584	37.2654
588	8.8088
592	3.58686
596	39.5682
600	12.8988
604	3.98944
608	13.3409
612	48.155
616	18.0694
620	27.3141
624	14.3011
628	21.5876
632	29.4593
636	11.9872
640	21.9977
644	26.1269
648	4.17789
652	31.2342
656	21.7979
660	22.1993
664	2.1867
668	43.982
672	38.9771
676	35.5933
680	-2.85709
684	2.57907
688	28.1461
692	70.6937
696	60.8865
700	6.51293
704	15.9135
708	58.4317
712	70.3004
716	42.832
720	55.1604
724	10.6868
728	18.6372
732	9.88835
736	11.7737
740	8.59177
744	-0.0520692
748	-8.56892
752	12.5696
756	24.1468
760	15.7371
764	-3.5688
768	28.4811
772	18.6348
776	18.944
780	1.00887
784	23.1654
788	9.03447
792	47.0516
796	6.28455
800	3.90819
804	23.7161
808	51.0793
812	39.5971
816	-3.51393
820	19.5971
824	38.4553
828	1.05222
832	28.8596
836	47.3956
840	24.3789
844	18.6765
848	8.65713
852	15.5699
856	16.9589
860	15.3714
864	5.63899
868	25.7723
872	23.6724
876	2.73056
880	45.666
884	1.69685
888	30.6071
892	17.5251
896	20.5722
900	1.56213
904	3.90118
908	12.8043
912	1.64246
916	-3.06257
920	16.2547
924	26.8043
928	18.7111
932	17.9411
936	9.81583
940	24.7405
944	33.0341
948	20.2356
952	22.2593
956	11.7884
960	2.47445
964	21.0507
968	5.52974
972	-9.93489
976	22.4179
980	30.542
984	20.9733
988	13.2473
992	2.86845
996	44.5399
1000	22.8922
1004	3.09064
1008	10.8258
1012	24.3043
1016	30.4457
1020	25.167
1024	12.6756
1028	0.360019
1032	0.537555
1036	-0.476432
1040	14.6463
1044	-11.3566
1048	-14.8605
1052	-3.58726
1056	6.69425
1060	-2.35826
1064	75.9563
1068	294.033
1072	568.274
1076	699.91
1080	609.872
1084	393.312
1088	121.728
1092	18.0396
1096	-13.1687
1100	-12.2472
1104	-7.71
1108	-8.0687
1112	0.0941081
1116	0.168144
1120	-2.40559
1124	1.75404
1128	16.6522
1132	31.8704
1136	20.9595
1140	52.9893
1144	39.5178
1148	1.98779
1152	30.8668
1156	7.95153
1160	34.5866
1164	1.22854
1168	39.8573
1172	89.2471
1176	95.4786
1180	98.0183
1184	43.98
1188	4.72479
1192	12.8776
1196	-0.316492
1200	21.7705
1204	36.584
1208	48.6439
1212	6.04263
1216	11.1301
1220	-0.836515
1224	2.85299
1228	3.15876
1232	17.8949
1236	34.6298
1240	4.52234
1244	48.2864
1248	57.5403
1252	23.4299
1256	79.4525
1260	41.9428
1264	69.1778
1268	14.3745
1272	50.3058
1276	27.001
1280	38.6889
1284	9.59187
1288	-0.335789
1292	45.0388
1296	4.44864
1300	20.6435
1304	14.3733
1308	15.659
1312	-6.04518
1316	10.2242
1320	17.2672
1324	14.1977
1328	6.22079
1332	-4.85534
1336	19.2357
1340	14.4233
1344	10.085
1348	5.72503
1352	39.7491
1356	6.61783
1360	3.91062
1364	27.1375
1368	23.7036
1372	46.4019
1376	42.1232
1380	26.3507
1384	18.3323
1388	24.0655
1392	20.9306
1396	24.0568
1400	6.84647
1404	16.2118
1408	11.0977
1412	20.5252
1416	14.4987
1420	11.2204
1424	10.2915
1428	17.4295
1432	38.3186
1436	-2.71432
1440	25.8379
1444	-4.5224
1448	30.3772
1452	18.7972
1456	-3.5678
1460	26.7118
1464	39.7834
1468	53.1101
1472	0.611577
1476	37.827
1480	16.2444
1484	15.1819
1488	23.2993
1492	-4.75575
1496	4.39728
1500	15.3036
1504	16.6911
1508	35.2947
1512	-0.875743
1516	47.1153
1520	4.94207
1524	16.3982
1528	-0.131165
1532	4.64397
1536	3.39243
1540	13.4923
1544	17.5862
1548	7.79234
1552	0.490734
1556	-9.73803
1560	-0.549972
1564	16.9757
1568	146.704
1572	273.511
1576	444.865
1580	488.229
1584	404.341
1588	198.376
1592	25.4574
1596	-3.88453
1600	-5.88035
1604	-6.381
1608	0.197519
1612	24.7638
1616	16.6115
1620	36.3344
1624	51.3151
1628	10.3984
1632	16.419
1636	13.0226
1640	-2.91103
1644	12.2616
1648	0.302936
