Raman shift (cm-1)	intensity
320	20.3044
324	-10.3244
328	17.4114
332	-4.99232
336	19.567
340	7.53926
344	25.7791
348	105.423
352	66.2318
356	66.2096
360	33.0227
364	17.5918
368	88.2028
372	81.348
376	48.6009
380	34.3438
384	35.4215
388	1.3308
392	-19.745
396	-28.3404
400	7.08935
404	-1.85926
408	205.774
412	399.756
416	631.805
420	790.77
424	863.294
428	752.284
432	554.859
436	321.852
440	86.3463
444	93.9881
448	161.566
452	230.858
456	190.048
460	189.045
464	122.333
468	18.0836
472	-40.0562
476	-16.2608
480	17.4459
484	118.198
488	184.488
492	85.6059
496	1.17926
500	-23.396
504	57.5073
508	205.332
512	429.167
516	562.836
520	752.846
524	799.822
528	699.542
532	633.973
536	658.881
540	659.443
544	750.524
548	672.174
552	555.154
556	372.323
560	251.879
564	99.5862
568	52.2948
572	-13.7017
576	3.82196
580	5.05427
584	-15.1385
588	26.3632
592	-3.96454
596	13.2014
600	-19.3225
604	11.6552
608	-2.90726
612	-0.616476
616	16.6455
620	12.4738
624	3.32315
628	48.8055
632	47.5915
636	91.9742
640	104.248
644	123.583
648	68.6639
652	-3.59616
656	38.2862
660	26.0299
664	42.8139
668	-13.5612
672	-0.516707
676	12.8305
680	25.0977
684	8.33627
688	24.9779
692	29.4706
696	47.2496
700	41.93
704	43.3182
708	8.64325
712	96.1496
716	76.1337
720	30.8691
724	0.249963
728	27.238
732	6.81211
736	3.19102
740	10.8696
744	1.71735
748	37.2477
752	29.5504
756	-1.05094
760	67.6455
764	48.4722
768	96.4619
772	78.5235
776	-7.76467
780	72.4964
784	26.6807
788	49.8953
792	75.1061
796	61.0068
800	87.8156
804	50.4254
808	44.7356
812	-1.45223
816	20.2776
820	27.7288
824	13.94
828	-8.42864
832	29.0624
836	11.3653
840	41.8199
844	41.7201
848	-0.648846
852	21.7726
856	19.4789
860	20.6424
864	6.5317
868	14.9552
872	45.2469
876	18.182
880	47.9515
884	43.9293
888	20.3926
892	65.3021
896	13.3425
900	-15.6986
904	77.2854
908	40.9154
912	14.2037
916	2.64842
920	17.7241
924	84.2842
928	51.0969
932	54.6434
936	70.7759
940	45.2865
944	4.77491
948	42.2996
952	0.949548
956	50.1841
960	61.9051
964	16.7948
968	1.33839
972	28.1906
976	1.41947
980	27.9546
984	20.0563
988	44.7874
992	75.2989
996	42.5721
1000	52.0398
1004	88.61
1008	-9.92121
1012	10.7356
1016	69.7909
1020	6.47762
1024	1.64522
1028	32.1667
1032	-10.8512
1036	45.9867
1040	15.8141
1044	33.5386
1048	7.45351
1052	-17.005
1056	5.84513
1060	29.2919
1064	14.1768
1068	38.5683
1072	222.99
1076	419.222
1080	424.088
1084	324.944
1088	169.447
1092	29.0436
1096	2.84075
1100	-7.07374
1104	31.0528
1108	44.2486
1112	24.8958
1116	-9.67248
1120	14.2964
1124	35.1693
1128	39.3764
1132	-0.722207
1136	68.3072
1140	32.5699
1144	61.1531
1148	50.4903
1152	-3.00768
1156	42.4529
1160	3.48231
1164	17.5006
1168	6.36737
1172	-0.435517
1176	31.6006
1180	46.1687
1184	46.9775
1188	18.182
1192	37.4877
1196	1.917
1200	8.19162
1204	57.4235
1208	84.1685
1212	40.4867
1216	20.3567
1220	1.76301
1224	16.9903
1228	-19.2853
1232	3.78279
1236	35.029
1240	110.153
1244	194.512
1248	289.87
1252	330.973
1256	378.903
1260	361.265
1264	306.182
1268	301.326
1272	248.589
1276	150.983
1280	75.7653
1284	113.262
1288	55.2739
1292	13.221
1296	26.059
1300	5.72336
1304	-3.68084
1308	0.14143
1312	9.5764
1316	3.67358
1320	-17.1479
1324	19.516
1328	-1.0667
1332	31.1663
1336	36.2596
1340	18.5652
1344	2.72394
1348	35.9069
1352	24.4279
1356	9.73533
1360	23.2125
1364	11.7707
1368	14.7939
1372	16.4457
1376	31.0425
1380	-0.747069
1384	28.9712
1388	82.3006
1392	70.6869
1396	61.9854
1400	58.4124
1404	41.9865
1408	12.7744
1412	16.6064
1416	29.1955
1420	-10.0555
1424	5.86901
1428	6.73643
1432	20.5426
1436	26.8673
1440	5.78693
1444	47.757
1448	11.536
1452	13.0231
1456	27.2933
1460	47.592
1464	32.1726
1468	8.57433
1472	13.5235
1476	65.1483
1480	50.2951
1484	31.6496
1488	-1.34549
1492	41.5628
1496	-9.46581
1500	17.1712
1504	14.6886
1508	2.08551
1512	47.9697
1516	28.8818
1520	27.7842
1524	3.1201
1528	-6.49172
1532	11.3081
1536	40.3429
1540	-1.37664
1544	26.191
1548	60.4665
1552	30.244
1556	26.2008
1560	-15.9426
1564	34.1674
1568	19.1139
1572	128.926
1576	215.464
1580	283.351
1584	213.618
1588	96.7837
1592	25.3619
1596	-4.4942
1600	15.4224
1604	12.5072
1608	23.1819
1612	30.2821
1616	3.20032
1620	64.597
1624	0.825136
1628	10.7217
1632	-1.32213
1636	32.3043
1640	28.5492
1644	1.1049
1648	1.14088
