Raman shift (cm-1)	intensity
320	16.894
324	30.1213
328	13.1489
332	33.6883
336	45.0868
340	18.6205
344	28.1664
348	64.5064
352	-0.481698
356	51.9176
360	-8.24084
364	14.5618
368	24.3556
372	1.20197
376	19.6801
380	11.6252
384	44.3976
388	-8.97494
392	-4.19007
396	-3.35736
400	-10.4839
404	24.1225
408	246.575
412	415.646
416	600.66
420	661.626
424	683.481
428	559.452
432	358.375
436	138.364
440	49.1353
444	99.8765
448	187.179
452	248.659
456	178.653
460	102.151
464	-28.2338
468	-11.0269
472	-0.122754
476	-24.2456
480	13.8128
484	33.1177
488	57.7069
492	15.8322
496	4.40637
500	-20.5507
504	45.1737
508	193.214
512	425.898
516	661.381
520	782.383
524	751.371
528	655.207
532	617.015
536	614.74
540	644.657
544	614.654
548	542.576
552	512.569
556	383.329
560	263.266
564	168.156
568	64.6848
572	2.3701
576	-21.5293
580	11.6187
584	-4.41773
588	32.098
592	12.0176
596	29.5899
600	-21.5576
604	4.54758
608	-10.0233
612	-15.2268
616	0.793764
620	79.6725
624	215.695
628	352.126
632	543.986
636	718.372
640	795.189
644	771.182
648	596.647
652	482.043
656	227.522
660	74.7878
664	-25.4187
668	-20.5678
672	16.2969
676	-19.9641
680	57.1714
684	81.5642
688	41.2716
692	6.26375
696	-20.6709
700	28.3067
704	18.9205
708	194.772
712	382.364
716	575.192
720	748.393
724	775.644
728	678.442
732	565.79
736	297.815
740	60.9247
744	-16.7256
748	-16.995
752	11.1856
756	14.0031
760	58.2015
764	62.368
768	48.2816
772	62.3634
776	-16.5097
780	1.08721
784	1.49599
788	30.6884
792	53.0568
796	77.0221
800	85.6784
804	133.164
808	91.5839
812	86.2907
816	20.3456
820	18.8353
824	49.5656
828	-1.27864
832	15.2857
836	6.76087
840	-1.50994
844	10.9155
848	14.0818
852	111.467
856	203.51
860	276.645
864	252.567
868	236.976
872	242.016
876	130.258
880	111.546
884	89.8449
888	14.6008
892	-6.33344
896	-3.44015
900	-2.22349
904	22.3813
908	4.1851
912	73.325
916	116.17
920	113.553
924	165.713
928	168.097
932	222.776
936	177.943
940	142.664
944	61.0224
948	60.3164
952	47.7887
956	4.48696
960	35.1003
964	-14.6658
968	43.4811
972	-18.0665
976	9.32433
980	7.78204
984	-11.3833
988	-16.8003
992	33.0183
996	-19.7345
1000	8.34955
1004	68.5478
1008	82.1669
1012	176.596
1016	153.723
1020	162.364
1024	99.8808
1028	74.8321
1032	78.2884
1036	137.447
1040	120.653
1044	81.2468
1048	22.4903
1052	2.10107
1056	-19.1428
1060	5.54483
1064	4.78078
1068	211.452
1072	602.482
1076	838.065
1080	731.608
1084	383.979
1088	72.227
1092	-15.356
1096	-8.00143
1100	-9.27307
1104	2.84428
1108	-1.98487
1112	-19.0307
1116	2.1224
1120	51.3326
1124	84.4863
1128	146.714
1132	168.873
1136	226.202
1140	257.401
1144	205.04
1148	121.603
1152	25.0996
1156	35.8115
1160	13.9179
1164	-13.5117
1168	9.12171
1172	-0.186083
1176	47.5874
1180	73.3546
1184	120.333
1188	59.6341
1192	4.14553
1196	18.3
1200	-17.2973
1204	48.2448
1208	94.1402
1212	67.9544
1216	65.3759
1220	-11.9484
1224	2.12433
1228	-12.965
1232	41.8175
1236	203.326
1240	318.369
1244	430.549
1248	529.099
1252	542.234
1256	519.377
1260	534.721
1264	523.909
1268	523.627
1272	528.719
1276	518.882
1280	467.291
1284	511.013
1288	440.438
1292	384.568
1296	321.17
1300	296.103
1304	211.09
1308	118.323
1312	14.4449
1316	28.4868
1320	50.5163
1324	0.389671
1328	-12.5582
1332	59.8123
1336	-4.25329
1340	-20.9812
1344	28.8497
1348	53.4205
1352	13.6932
1356	0.701202
1360	32.8251
1364	12.1526
1368	-4.6579
1372	16.5014
1376	10.5101
1380	44.1564
1384	31.8554
1388	71.2815
1392	15.176
1396	29.5005
1400	-6.68451
1404	12.7405
1408	-0.014247
1412	26.5734
1416	13.4719
1420	-1.98303
1424	7.45163
1428	81.4474
1432	162.323
1436	316.522
1440	447.686
1444	470.395
1448	477.871
1452	435.908
1456	477.493
1460	502.438
1464	513.841
1468	520.416
1472	412.584
1476	306.797
1480	174.615
1484	28.0071
1488	-10.935
1492	-2.73196
1496	-5.84346
1500	6.70577
1504	-17.8729
1508	45.0846
1512	0.250653
1516	-6.64266
1520	14.7133
1524	7.37883
1528	-3.94587
1532	1.0964
1536	31.6949
1540	-8.92403
1544	41.2855
1548	24.5501
1552	26.705
1556	-0.752428
1560	2.1088
1564	-1.81471
1568	103.219
1572	297.884
1576	580.162
1580	624.335
1584	362.288
1588	113.197
1592	22.3351
1596	-38.3834
1600	47.6765
1604	40.0285
1608	29.0439
1612	46.9649
1616	56.9527
1620	-2.61439
1624	14.9843
1628	-2.18385
1632	40.976
1636	9.34062
1640	35.167
1644	5.036
1648	1.41573
