Raman shift (cm-1)	intensity
320	-9.58873
324	5.37412
328	3.5826
332	27.5043
336	80.3202
340	101.699
344	91.2022
348	93.3718
352	126.393
356	78.7396
360	85.9036
364	3.47988
368	2.41453
372	13.8362
376	40.3423
380	44.3177
384	7.61473
388	-11.0211
392	-10.4312
396	-1.29784
400	-1.43401
404	10.0117
408	97.874
412	175.034
416	242.087
420	275.329
424	270.097
428	207.564
432	169.129
436	114.351
440	17.4153
444	29.9548
448	50.6704
452	53.5408
456	60.8948
460	63.9377
464	19.17
468	-6.03345
472	1.568
476	1.69173
480	-6.88148
484	2.80903
488	35.5467
492	42.6729
496	31.5788
500	0.123876
504	-0.412198
508	79.5458
512	176.601
516	271.864
520	308.781
524	290.874
528	232.406
532	159.202
536	95.5794
540	38.7524
544	85.5438
548	61.8185
552	25.8184
556	22.222
560	3.58669
564	23.9315
568	3.97352
572	-3.68869
576	4.55318
580	-3.44394
584	16.4345
588	3.99226
592	-7.88756
596	25.1343
600	0.624276
604	15.1572
608	24.5628
612	-3.64394
616	-2.96705
620	26.4433
624	17.4304
628	-4.74771
632	31.5437
636	23.9898
640	3.89099
644	8.33031
648	26.0038
652	-2.58384
656	18.2948
660	48.9237
664	14.6506
668	22.746
672	2.80835
676	21.0402
680	-3.04255
684	17.7808
688	41.4045
692	29.5356
696	23.6195
700	10.9809
704	23.206
708	25.6918
712	31.9045
716	20.0728
720	32.1648
724	6.66745
728	21.0782
732	-2.4317
736	-2.62571
740	39.5362
744	21.7661
748	-2.2747
752	23.6239
756	31.6122
760	30.9798
764	42.0528
768	34.1109
772	53.3771
776	19.7032
780	3.22236
784	14.8266
788	58.489
792	50.2204
796	10.7074
800	25.2164
804	36.2566
808	55.7773
812	18.4909
816	6.13128
820	16.2431
824	-12.1173
828	29.2548
832	8.81246
836	34.3855
840	61.0426
844	41.0207
848	13.7489
852	16.0114
856	2.62891
860	5.62075
864	20.6318
868	32.236
872	34.4133
876	-8.54621
880	3.27006
884	49.4038
888	26.8221
892	6.10779
896	16.8291
900	38.2592
904	9.64912
908	22.3159
912	3.75061
916	1.55416
920	59.2086
924	32.3051
928	44.7626
932	25.4851
936	79.1877
940	8.33341
944	25.3302
948	40.2381
952	68.1795
956	53.5834
960	34.1185
964	2.70047
968	24.2291
972	1.66508
976	-5.34282
980	11.5901
984	19.5366
988	-3.89636
992	9.02848
996	27.377
1000	-0.0211773
1004	19.4404
1008	10.615
1012	20.7904
1016	86.7857
1020	78.8145
1024	68.2159
1028	9.05978
1032	17.6229
1036	32.2185
1040	16.0064
1044	-12.3238
1048	-10.5915
1052	20.7525
1056	-21.8486
1060	23.1109
1064	121.927
1068	277.907
1072	525.757
1076	677.126
1080	563.164
1084	358.78
1088	131.895
1092	-8.19146
1096	-1.49206
1100	-20.4879
1104	10.9932
1108	16.7903
1112	1.31876
1116	19.4518
1120	-14.3677
1124	27.9868
1128	2.81323
1132	6.49624
1136	55.0244
1140	37.9806
1144	18.1815
1148	33.9858
1152	40.7573
1156	31.5271
1160	-1.93998
1164	3.63662
1168	6.34032
1172	7.15069
1176	23.8106
1180	58.9667
1184	53.7665
1188	22.9778
1192	12.3296
1196	28.2868
1200	-4.89085
1204	51.3301
1208	84.3839
1212	32.9267
1216	58.5834
1220	17.1086
1224	2.13527
1228	24.0086
1232	-9.9146
1236	76.5822
1240	66.3569
1244	77.0019
1248	120.265
1252	109.901
1256	145.837
1260	124.006
1264	136.555
1268	119.677
1272	49.8242
1276	51.2383
1280	56.1434
1284	-4.54523
1288	29.4015
1292	28.4229
1296	-3.92997
1300	36.2858
1304	9.76735
1308	2.64953
1312	-5.95365
1316	12.849
1320	10.8287
1324	12.5659
1328	30.574
1332	6.89043
1336	-14.2264
1340	-4.20579
1344	49.6497
1348	41.8834
1352	17.9438
1356	47.0629
1360	62.5397
1364	5.26161
1368	42.397
1372	47.316
1376	69.4885
1380	9.60461
1384	60.359
1388	-3.01847
1392	39.0293
1396	46.193
1400	67.8715
1404	40.5347
1408	13.3641
1412	49.1148
1416	86.0384
1420	50.573
1424	48.9211
1428	-6.51464
1432	37.7499
1436	56.4321
1440	1.51428
1444	4.05607
1448	-1.65608
1452	21.4431
1456	23.3532
1460	-5.0614
1464	10.1193
1468	16.1036
1472	48.9903
1476	32.694
1480	26.9577
1484	3.79949
1488	38.0438
1492	20.6313
1496	2.84681
1500	5.55945
1504	-3.95864
1508	32.0653
1512	42.6341
1516	-8.80515
1520	8.2578
1524	1.00689
1528	39.1344
1532	11.6927
1536	-2.97666
1540	25.9089
1544	-3.76122
1548	1.67974
1552	24.7615
1556	21.7719
1560	-8.28032
1564	-6.09275
1568	112.311
1572	324.816
1576	533.82
1580	672.883
1584	531.204
1588	248.613
1592	9.76782
1596	16.1413
1600	6.16865
1604	-2.37498
1608	12.3247
1612	-3.644
1616	23.174
1620	1.56616
1624	9.83924
1628	24.1051
1632	43.0876
1636	47.2665
1640	-0.718611
1644	4.77069
1648	-5.68356
