Raman shift (cm-1)	intensity
320	-6.04579
324	50.3321
328	69.9955
332	77.5146
336	134.317
340	151.682
344	166.085
348	133.439
352	94.1623
356	142.542
360	92.2158
364	60.0584
368	6.69986
372	12.77
376	20.8488
380	-11.4214
384	17.2697
388	1.73131
392	1.09917
396	-16.3203
400	0.536723
404	44.784
408	109.718
412	127.976
416	247.502
420	275.239
424	247.711
428	226.386
432	192.659
436	106.741
440	39.0901
444	4.75292
448	70.2522
452	44.1091
456	66.9675
460	11.9605
464	2.71391
468	-9.69137
472	-2.83438
476	-10.7931
480	6.48702
484	30.7606
488	49.0144
492	16.6783
496	6.14126
500	2.21225
504	63.7148
508	112.635
512	224.247
516	255.842
520	299.161
524	287.73
528	194.302
532	130.076
536	67.9699
540	43.7128
544	98.5806
548	77.8113
552	52.6673
556	20.0192
560	11.003
564	-3.02633
568	-7.7639
572	14.0027
576	20.7549
580	-10.0181
584	8.55729
588	35.5014
592	5.89441
596	0.117928
600	1.94249
604	4.36831
608	8.89533
612	3.52383
616	60.3725
620	35.63
624	-3.65297
628	13.609
632	26.2664
636	15.0391
640	19.871
644	57.6441
648	11.0978
652	3.31865
656	11.9976
660	43.1512
664	0.483047
668	8.7375
672	44.8237
676	46.348
680	41.6886
684	19.9334
688	-5.5042
692	20.3282
696	61.1473
700	49.0836
704	48.7747
708	74.7761
712	76.0697
716	35.2616
720	30.0246
724	5.07575
728	0.909862
732	5.26037
736	-0.261615
740	8.40608
744	-5.05573
748	18.8799
752	20.7373
756	17.9889
760	28.911
764	6.83973
768	2.53346
772	18.5317
776	0.712952
780	24.3338
784	33.8652
788	48.1275
792	69.3559
796	32.2509
800	60.4069
804	87.9941
808	51.3037
812	18.9367
816	15.3108
820	12.4223
824	-4.00954
828	13.0074
832	0.600571
836	80.5967
840	65.4672
844	57.0946
848	30.8523
852	19.8592
856	-4.06313
860	11.8156
864	11.6382
868	-2.67911
872	-0.00393416
876	30.3486
880	14.4072
884	-4.66552
888	-9.89936
892	8.48002
896	8.40379
900	20.2763
904	12.1184
908	13.4186
912	33.3437
916	34.8535
920	22.9364
924	75.6636
928	62.8743
932	24.9193
936	22.9202
940	44.9107
944	64.2852
948	83.8274
952	71.7583
956	94.9535
960	84.1225
964	3.95873
968	10.1709
972	2.73766
976	9.10139
980	37.6222
984	7.55075
988	-9.21864
992	6.59133
996	10.8686
1000	0.850565
1004	23.0889
1008	26.7417
1012	61.8505
1016	92.4415
1020	91.9267
1024	91.902
1028	63.6378
1032	56.1558
1036	10.7006
1040	34.1327
1044	-15.1053
1048	7.85758
1052	-2.93748
1056	-24.3871
1060	-5.88888
1064	68.6172
1068	220.538
1072	451.017
1076	610.228
1080	583.587
1084	367.185
1088	172.146
1092	29.9854
1096	-25.1564
1100	11.8832
1104	25.0555
1108	-4.72279
1112	19.5291
1116	-12.3061
1120	-2.88075
1124	2.02744
1128	8.22955
1132	0.572378
1136	2.42578
1140	90.5239
1144	35.6105
1148	41.1508
1152	32.3799
1156	35.1322
1160	15.193
1164	-7.35325
1168	16.4547
1172	5.48117
1176	39.8725
1180	68.4987
1184	37.9608
1188	34.5276
1192	8.20811
1196	23.4337
1200	81.84
1204	40.4236
1208	75.2551
1212	28.3471
1216	11.6388
1220	16.7872
1224	21.2221
1228	-18.1163
1232	27.4419
1236	34.1468
1240	36.8911
1244	81.529
1248	92.3137
1252	136.57
1256	98.3619
1260	140.468
1264	103.932
1268	69.2619
1272	41.8773
1276	11.6117
1280	44.6813
1284	-2.8564
1288	13.7689
1292	29.3851
1296	40.0794
1300	-9.79929
1304	58.3382
1308	20.7556
1312	18.556
1316	8.01304
1320	4.48395
1324	25.1247
1328	50.5154
1332	-22.9219
1336	7.27296
1340	0.272702
1344	16.9998
1348	30.8413
1352	32.9153
1356	39.3043
1360	19.8557
1364	29.9694
1368	34.6237
1372	-10.418
1376	57.3688
1380	16.8423
1384	14.0584
1388	37.6126
1392	45.268
1396	50.5194
1400	54.2675
1404	29.5603
1408	33.4811
1412	51.0183
1416	37.4496
1420	74.9887
1424	52.0253
1428	42.8126
1432	15.7227
1436	-5.57451
1440	-2.66307
1444	0.836451
1448	15.4798
1452	12.0543
1456	16.2163
1460	34.158
1464	-5.50113
1468	30.567
1472	35.3178
1476	8.21619
1480	41.6395
1484	9.26193
1488	15.289
1492	8.46882
1496	11.7214
1500	2.03603
1504	42.4827
1508	11.5535
1512	27.4846
1516	9.4935
1520	-4.01229
1524	10.1589
1528	14.2987
1532	35.4631
1536	40.4796
1540	15.7126
1544	-17.4215
1548	32.3804
1552	40.1147
1556	52.8215
1560	-22.0497
1564	24.2415
1568	121.984
1572	297.122
1576	512.538
1580	611.416
1584	510.948
1588	234.718
1592	22.828
1596	16.075
1600	1.39936
1604	-2.46307
1608	15.0152
1612	-1.31753
1616	24.517
1620	29.1016
1624	51.3235
1628	29.6992
1632	26.1942
1636	39.4335
1640	-3.36379
1644	15.7586
1648	-11.0949
