Raman shift (cm-1)	intensity
320	-31.8381
324	-3.35585
328	18.5973
332	10.5074
336	26.1944
340	11.8214
344	15.0568
348	67.657
352	3.75057
356	8.5115
360	-2.15702
364	8.58976
368	7.00261
372	17.0591
376	-1.88207
380	-7.83653
384	-1.24681
388	1.63043
392	-9.62162
396	2.10849
400	-15.3079
404	-6.66478
408	51.2197
412	18.4824
416	108.965
420	151.713
424	169.052
428	109.513
432	70.7966
436	10.4322
440	8.52929
444	-9.70345
448	21.8632
452	66.921
456	42.1889
460	-0.612622
464	-1.22799
468	-8.28664
472	-15.5831
476	18.0207
480	4.06318
484	2.24899
488	37.9689
492	10.3562
496	6.4865
500	-34.5951
504	-4.15498
508	26.9185
512	134.025
516	158.786
520	196.43
524	67.0816
528	80.6044
532	2.83946
536	14.6277
540	17.6736
544	28.7956
548	25.432
552	20.4386
556	1.95772
560	-2.33221
564	19.605
568	7.52994
572	-16.5121
576	12.207
580	-8.96326
584	38.7931
588	5.46063
592	-3.67785
596	14.1335
600	-2.18266
604	27.2303
608	-11.597
612	16.1376
616	-12.2364
620	2.91601
624	17.5498
628	16.1264
632	-10.0593
636	35.7564
640	13.8581
644	17.6357
648	18.0679
652	10.8602
656	-8.83852
660	2.16158
664	24.7273
668	15.5811
672	-9.55817
676	14.8282
680	-0.720008
684	-11.2434
688	40.8048
692	11.9335
696	14.0688
700	-0.398061
704	-1.52096
708	50.6607
712	55.0511
716	-12.2795
720	65.5673
724	-2.17007
728	36.5029
732	-20.0648
736	10.2941
740	24.3782
744	-1.35474
748	-1.04236
752	36.4823
756	11.0233
760	14.8888
764	1.41091
768	33.1516
772	2.56757
776	21.5497
780	-3.40596
784	-1.578
788	13.4334
792	7.69758
796	71.8519
800	23.6912
804	26.145
808	7.77601
812	30.7362
816	5.8005
820	-16.46
824	37.948
828	-24.8207
832	5.18851
836	51.7681
840	36.9889
844	32.3063
848	3.2269
852	42.4449
856	16.8406
860	-6.18636
864	10.5903
868	11.8186
872	-7.17217
876	18.9453
880	6.81324
884	-6.44926
888	37.3674
892	31.5095
896	13.0498
900	3.60457
904	19.9271
908	8.0883
912	19.648
916	4.29363
920	6.13349
924	1.5544
928	27.3146
932	34.7952
936	-5.7617
940	7.64322
944	15.2163
948	8.81632
952	46.6272
956	17.6453
960	1.13389
964	16.57
968	-11.6704
972	5.74383
976	-2.00824
980	-3.8345
984	14.6308
988	5.0875
992	8.8826
996	17.057
1000	9.91941
1004	23.9335
1008	-4.0458
1012	24.4068
1016	14.63
1020	61.3717
1024	30.9005
1028	15.3958
1032	3.01547
1036	45.5488
1040	15.7933
1044	-13.1705
1048	-4.58222
1052	-7.69279
1056	2.02081
1060	-20.3984
1064	-26.6415
1068	62.6856
1072	326.393
1076	604.953
1080	538.723
1084	263.647
1088	33.3225
1092	-6.87138
1096	-25.5581
1100	-35.9569
1104	9.39796
1108	-14.5937
1112	-1.09888
1116	4.56314
1120	19.5686
1124	-11.5115
1128	0.916689
1132	16.2627
1136	-5.52426
1140	36.9842
1144	73.9659
1148	-2.13291
1152	-12.1115
1156	32.5846
1160	22.7768
1164	-22.2054
1168	0.469463
1172	17.8398
1176	8.89491
1180	68.4855
1184	67.268
1188	6.54327
1192	-19.5134
1196	53.2877
1200	-12.7349
1204	35.7858
1208	64.7418
1212	6.73003
1216	3.97581
1220	43.5995
1224	-8.28591
1228	-5.75647
1232	-18.8369
1236	35.1307
1240	-5.8432
1244	6.43132
1248	45.5466
1252	26.5095
1256	3.88055
1260	31.9509
1264	60.4077
1268	25.116
1272	3.76942
1276	14.543
1280	39.1251
1284	12.2256
1288	38.4723
1292	-4.24901
1296	41.898
1300	-10.3627
1304	5.1579
1308	43.28
1312	-0.950294
1316	-9.27224
1320	-2.68716
1324	52.2554
1328	8.04791
1332	16.985
1336	-4.47767
1340	28.8183
1344	-8.65504
1348	6.44539
1352	0.226428
1356	29.7271
1360	18.0508
1364	6.93088
1368	-2.10472
1372	17.2163
1376	14.6322
1380	4.74949
1384	17.2405
1388	22.2618
1392	-4.68453
1396	10.0029
1400	21.3278
1404	53.4839
1408	-0.381648
1412	30.0533
1416	-1.69586
1420	47.0126
1424	-10.6407
1428	3.91566
1432	33.4976
1436	19.4529
1440	-10.0543
1444	3.16493
1448	28.1754
1452	-9.58084
1456	22.6288
1460	32.0918
1464	-18.6327
1468	-0.796866
1472	35.6363
1476	38.2028
1480	6.40638
1484	21.0718
1488	19.4561
1492	2.2995
1496	-4.75276
1500	10.7899
1504	8.68462
1508	39.8346
1512	2.7531
1516	-11.3632
1520	-1.79627
1524	16.5735
1528	16.2136
1532	7.49242
1536	22.6829
1540	-6.78069
1544	2.66111
1548	22.8665
1552	28.9241
1556	-1.72594
1560	-15.1962
1564	-22.859
1568	-10.1811
1572	23.5704
1576	233.407
1580	452.272
1584	397.483
1588	138.212
1592	-2.47645
1596	-0.618252
1600	-16.3779
1604	-11.855
1608	-0.0924511
1612	2.01927
1616	13.8737
1620	16.6147
1624	9.30632
1628	4.95598
1632	30.3516
1636	-16.8195
1640	22.0755
1644	44.0512
1648	-1.92245
