Raman shift (cm-1)	intensity
320	-10.5988
324	21.0496
328	-6.92463
332	33.0568
336	27.4729
340	-2.326
344	8.51495
348	45.4503
352	-0.110237
356	17.9699
360	35.9054
364	2.44739
368	1.08186
372	18.3266
376	5.05895
380	-9.9503
384	13.6322
388	2.60338
392	-8.96067
396	11.4336
400	-4.32095
404	9.14283
408	-17.017
412	-0.610618
416	23.4273
420	106.63
424	61.3092
428	44.5254
432	57.1208
436	21.3485
440	-10.989
444	20.9377
448	34.399
452	41.574
456	0.554648
460	-8.44383
464	-10.631
468	1.66136
472	16.501
476	1.54457
480	0.819976
484	-6.27171
488	9.89872
492	-2.28043
496	14.5954
500	-14.5859
504	11.3182
508	42.7114
512	67.9427
516	77.958
520	66.3725
524	31.4134
528	63.7661
532	3.16585
536	25.717
540	-6.59829
544	5.03445
548	3.50083
552	13.0063
556	40.1242
560	16.0254
564	-4.36717
568	-11.2737
572	-4.99475
576	20.9785
580	11.7746
584	2.2224
588	21.167
592	-15.06
596	32.3811
600	17.1407
604	31.5407
608	-9.75047
612	9.13144
616	16.3737
620	20.4287
624	14.5771
628	-6.20054
632	1.33358
636	36.8363
640	15.0105
644	25.0151
648	-3.53111
652	-0.957574
656	-8.20669
660	11.8827
664	40.5384
668	-0.166865
672	22.7277
676	-3.88927
680	-3.6673
684	-2.67563
688	16.538
692	21.5894
696	18.6776
700	7.70974
704	-0.212529
708	9.70183
712	56.1709
716	2.6998
720	11.303
724	-0.385345
728	29.8651
732	49.5961
736	-18.0287
740	4.78539
744	-1.8029
748	8.30391
752	8.25109
756	-9.71511
760	-5.20624
764	12.7704
768	17.8751
772	0.0707035
776	4.08233
780	15.8541
784	35.7046
788	9.44485
792	12.9836
796	-2.58662
800	23.4305
804	10.7055
808	7.35935
812	3.81353
816	-1.00302
820	3.95309
824	15.8964
828	21.7957
832	11.4822
836	-1.19674
840	18.0792
844	15.6488
848	33.5413
852	6.65436
856	11.8746
860	-8.56597
864	20.0928
868	46.7793
872	-10.9832
876	33.5704
880	7.37712
884	7.51384
888	12.1782
892	16.733
896	14.1511
900	-8.55275
904	31.3698
908	-11.6001
912	22.7204
916	17.395
920	-7.57978
924	57.0097
928	30.1948
932	2.51386
936	8.26221
940	-3.52889
944	27.8264
948	6.65008
952	-3.94934
956	22.9446
960	32.041
964	4.64646
968	0.178844
972	11.2071
976	15.4485
980	0.334444
984	15.2758
988	13.3205
992	1.97921
996	9.65751
1000	46.5755
1004	-4.5995
1008	14.2486
1012	5.4471
1016	25.0205
1020	30.5061
1024	6.25285
1028	-8.91629
1032	22.9085
1036	0.574094
1040	-2.4463
1044	-6.3032
1048	1.49064
1052	24.6467
1056	-18.6393
1060	-27.3559
1064	9.15361
1068	33.7124
1072	168.263
1076	259.48
1080	267.073
1084	178.167
1088	32.5257
1092	7.76075
1096	-8.61051
1100	3.45702
1104	-0.811301
1108	-5.44207
1112	-4.41649
1116	9.1746
1120	-3.12841
1124	27.1794
1128	-4.30648
1132	25.2622
1136	29.6339
1140	5.89094
1144	23
1148	-7.06976
1152	-6.61925
1156	44.0322
1160	10.4726
1164	0.287684
1168	20.6822
1172	7.77161
1176	20.7446
1180	-2.41727
1184	43.3545
1188	-14.4631
1192	16.4182
1196	20.9623
1200	1.91965
1204	24.9971
1208	10.6355
1212	11.8839
1216	16.1993
1220	-6.2762
1224	17.185
1228	-14.0213
1232	18.162
1236	7.66074
1240	9.71098
1244	2.43072
1248	5.60056
1252	12.4365
1256	32.6697
1260	36.7657
1264	23.892
1268	6.84715
1272	18.7382
1276	10.3884
1280	7.53156
1284	-4.43371
1288	17.4629
1292	5.22257
1296	13.7131
1300	-2.70726
1304	40.0761
1308	-8.44036
1312	4.06947
1316	-7.59066
1320	38.1304
1324	5.92104
1328	3.83852
1332	-4.19186
1336	24.8595
1340	6.72616
1344	25.9438
1348	-9.07634
1352	21.0334
1356	23.0749
1360	5.56476
1364	11.447
1368	0.964513
1372	15.68
1376	-0.797799
1380	-3.43775
1384	11.0188
1388	32.1209
1392	0.307955
1396	26.3251
1400	15.34
1404	-3.79326
1408	0.641348
1412	16.6294
1416	17.5206
1420	-2.9811
1424	33.1767
1428	0.25468
1432	5.79858
1436	17.5304
1440	19.925
1444	2.3112
1448	-1.68116
1452	22.0145
1456	-5.29792
1460	-0.736443
1464	15.491
1468	14.0968
1472	2.43072
1476	18.7702
1480	43.1629
1484	2.8418
1488	19.4623
1492	7.65053
1496	12.6412
1500	-3.09529
1504	9.14469
1508	5.8293
1512	18.7187
1516	-2.67033
1520	6.90383
1524	-0.22555
1528	18.4065
1532	17.4634
1536	-1.77275
1540	-0.408777
1544	6.83345
1548	0.881174
1552	20.665
1556	31.1232
1560	-31.5156
1564	4.04537
1568	-1.02064
1572	41.2685
1576	118.282
1580	213.231
1584	207.429
1588	154.497
1592	1.42012
1596	3.92187
1600	-18.3809
1604	15.6257
1608	-4.47829
1612	19.4952
1616	28.6787
1620	-8.54199
1624	16.5895
1628	21.2446
1632	21.6695
1636	-2.51817
1640	20.7719
1644	-9.77536
1648	10.0015
