Raman shift (cm-1)	intensity
320	-17.6524
324	10.7086
328	45.5586
332	-12.2578
336	32.828
340	26.6202
344	12.2716
348	35.5562
352	0.25602
356	21.1802
360	-2.55484
364	-0.87134
368	24.8604
372	29.3638
376	21.183
380	7.75069
384	-0.53024
388	-5.39728
392	-2.44438
396	-7.36328
400	-4.79751
404	-13.2529
408	21.8055
412	96.3913
416	168.884
420	236.184
424	263.758
428	184.566
432	110.89
436	6.29254
440	20.9623
444	14.6211
448	-1.31488
452	4.36371
456	21.6845
460	11.6509
464	-2.84118
468	-13.809
472	1.74071
476	29.9264
480	-8.69921
484	1.66345
488	18.8332
492	-0.399972
496	5.19327
500	-32.707
504	12.8594
508	7.41958
512	40.3346
516	120.472
520	147.5
524	71.9451
528	33.8586
532	68.5924
536	9.55015
540	9.65092
544	18.423
548	55.13
552	51.632
556	39.5128
560	4.45511
564	-8.17826
568	-22.8304
572	48.1998
576	3.68739
580	13.5927
584	17.4547
588	5.90171
592	17.8272
596	-14.3971
600	25.8907
604	19.6044
608	-7.21818
612	-0.607945
616	-0.127487
620	-3.10823
624	15.436
628	6.91553
632	12.8128
636	12.9178
640	-0.19504
644	17.2835
648	10.1636
652	8.13002
656	34.5909
660	-8.67859
664	24.4873
668	4.54826
672	0.209449
676	-3.03978
680	9.48147
684	-1.69411
688	35.9369
692	23.9552
696	0.676103
700	3.25861
704	52.0162
708	9.904
712	38.748
716	-2.03095
720	2.32711
724	1.46663
728	-7.08488
732	1.9931
736	-1.37824
740	-17.6326
744	9.5188
748	7.18001
752	9.18594
756	-0.808682
760	8.15099
764	-1.74522
768	35.1366
772	57.822
776	29.3211
780	-9.33098
784	9.96757
788	10.7661
792	4.16391
796	16.3129
800	10.7328
804	27.6524
808	5.22534
812	29.3463
816	-6.43435
820	11.0798
824	-11.7449
828	42.5165
832	23.7838
836	10.2526
840	36.6611
844	34.2716
848	8.34426
852	-15.6684
856	11.7551
860	-7.19883
864	20.3509
868	36.6462
872	13.8969
876	6.31154
880	-6.41409
884	7.58587
888	-4.56598
892	23.9954
896	3.40661
900	15.132
904	-0.518243
908	8.29725
912	37.2158
916	2.15334
920	5.01201
924	37.1231
928	1.67246
932	32.9237
936	10.1147
940	-17.3638
944	35.6467
948	5.4542
952	18.5568
956	21.0609
960	1.37434
964	7.85694
968	35.5604
972	-11.423
976	3.861
980	14.6224
984	0.619129
988	3.43347
992	4.22688
996	29.224
1000	18.7865
1004	13.1876
1008	-8.95407
1012	-11.2813
1016	31.5701
1020	42.3283
1024	15.9086
1028	55.9246
1032	-0.801315
1036	10.4244
1040	12.6228
1044	4.48772
1048	-9.45286
1052	-30.2611
1056	19.1897
1060	-35.2801
1064	2.90184
1068	132.965
1072	267.281
1076	380.507
1080	315.441
1084	146.755
1088	18.6394
1092	-12.915
1096	-24.8009
1100	-9.06969
1104	21.7165
1108	-10.643
1112	13.5418
1116	1.16304
1120	-4.43218
1124	-1.57371
1128	-1.66255
1132	13.0041
1136	22.3315
1140	34.4091
1144	6.70738
1148	27.5376
1152	42.5665
1156	17.8175
1160	15.1788
1164	-18.9856
1168	45.2737
1172	10.3391
1176	-11.9237
1180	22.7761
1184	30.9633
1188	-11.001
1192	42.2303
1196	-17.6824
1200	43.1594
1204	24.5541
1208	65.9993
1212	9.75691
1216	-2.258
1220	2.00192
1224	-10.8462
1228	9.87595
1232	-6.40009
1236	-19.4839
1240	33.0935
1244	22.1509
1248	12.331
1252	26.1767
1256	34.5593
1260	17.7119
1264	41.2259
1268	50.5245
1272	34.5779
1276	9.94811
1280	-0.483251
1284	0.948291
1288	24.8151
1292	35.2516
1296	3.47905
1300	6.14762
1304	-7.62916
1308	18.8081
1312	1.42329
1316	8.57006
1320	2.5624
1324	20.676
1328	7.32355
1332	21.2841
1336	-1.68525
1340	22.5614
1344	-10.1078
1348	31.6077
1352	19.8937
1356	-0.220517
1360	18.2237
1364	7.50125
1368	5.17918
1372	-0.373547
1376	2.64584
1380	0.806114
1384	12.3822
1388	35.9626
1392	26.0723
1396	-4.71229
1400	29.3712
1404	3.35725
1408	20.8468
1412	-1.69164
1416	16.5757
1420	27.6487
1424	13.2091
1428	29.212
1432	-3.30709
1436	31.2409
1440	-0.568408
1444	1.29522
1448	0.185946
1452	19.9576
1456	31.4352
1460	10.9489
1464	-14.2567
1468	8.93933
1472	43.1899
1476	19.4061
1480	27.8523
1484	-2.77198
1488	-7.07131
1492	22.8892
1496	30.2685
1500	1.89308
1504	5.97563
1508	15.9642
1512	12.5593
1516	13.2539
1520	-0.77667
1524	6.57909
1528	5.56278
1532	36.6714
1536	-4.92547
1540	70.8263
1544	-33.2587
1548	4.51613
1552	42.302
1556	-35.1982
1560	27.9622
1564	20.0752
1568	15.7694
1572	179.991
1576	311.192
1580	416.763
1584	316.62
1588	89.2615
1592	-14.0037
1596	-18.6155
1600	-8.01027
1604	13.545
1608	-8.88521
1612	0.422497
1616	40.5236
1620	-6.25896
1624	4.24247
1628	-1.53248
1632	37.8123
1636	1.98824
1640	4.44452
1644	23.3861
1648	-6.34222
