Raman shift (cm-1)	intensity
320	24.7936
324	-23.7707
328	40.0716
332	47.6651
336	-10.8304
340	21.3802
344	21.5213
348	3.96037
352	20.4416
356	23.1328
360	46.6208
364	-3.38705
368	4.87146
372	4.21334
376	14.9782
380	15.8256
384	-2.83498
388	27.837
392	-13.3519
396	-0.00740325
400	-28.9195
404	14.9323
408	19.8225
412	83.3385
416	111.739
420	178.245
424	214.084
428	183.488
432	122.043
436	15.08
440	-8.10382
444	20.3047
448	25.3221
452	32.2367
456	6.3618
460	18.5745
464	0.176576
468	18.0157
472	-20.4439
476	-3.12021
480	-8.55401
484	2.76728
488	46.9712
492	33.1975
496	-12.391
500	0.655806
504	-2.85775
508	22.4296
512	28.8748
516	53.9023
520	105.638
524	107.47
528	48.3043
532	20.7117
536	31.4925
540	11.3316
544	41.7115
548	37.4146
552	14.0546
556	24.6977
560	-15.997
564	8.25802
568	19.5356
572	-13.7629
576	9.85545
580	-8.76218
584	14.5791
588	3.38622
592	41.1596
596	-18.7671
600	2.22022
604	17.7318
608	4.3289
612	2.20035
616	-0.0434819
620	-0.910253
624	26.4366
628	15.1678
632	2.95733
636	27.9399
640	-3.47118
644	33.3443
648	2.43251
652	10.1195
656	14.6508
660	-0.824625
664	3.49675
668	-6.54612
672	22.6958
676	4.25444
680	9.0703
684	11.0139
688	26.0251
692	3.19197
696	-10.5913
700	19.3718
704	9.82935
708	41.4782
712	24.1476
716	1.5868
720	6.83243
724	-3.93493
728	-7.557
732	39.6103
736	36.2768
740	-9.76523
744	11.2133
748	13.1614
752	-4.20076
756	-3.52649
760	2.69237
764	45.609
768	1.50293
772	14.3528
776	22.8894
780	3.09149
784	4.57574
788	11.7927
792	28.1848
796	21.3527
800	-8.63087
804	23.5828
808	30.963
812	24.3605
816	3.79078
820	21.2369
824	-24.8781
828	11.2166
832	1.22165
836	32.9981
840	22.3962
844	-5.0062
848	21.3028
852	-1.13542
856	0.831642
860	0.223659
864	17.5789
868	35.3739
872	-1.41828
876	1.60408
880	-11.6093
884	20.4718
888	6.75412
892	2.77748
896	7.00709
900	21.6174
904	24.9182
908	-7.8065
912	16.7248
916	15.8853
920	2.17021
924	19.377
928	17.5478
932	60.4008
936	-8.03659
940	6.04779
944	2.22278
948	50.3279
952	10.6006
956	44.9998
960	6.10772
964	4.75668
968	-1.0404
972	16.37
976	18.4856
980	0.812031
984	6.44883
988	21.71
992	-4.79675
996	3.2815
1000	25.2931
1004	3.00687
1008	-10.7508
1012	10.802
1016	35.9141
1020	34.979
1024	11.4161
1028	18.4934
1032	30.8511
1036	-4.90893
1040	-4.32785
1044	13.963
1048	18.0362
1052	-25.8517
1056	-21.7234
1060	-1.25136
1064	-18.7808
1068	32.2028
1072	205.032
1076	300.135
1080	268.215
1084	141.406
1088	17.2428
1092	-18.8412
1096	-10.3444
1100	-7.64143
1104	0.404106
1108	-7.16312
1112	32.4084
1116	-8.98207
1120	3.10864
1124	-4.58563
1128	-2.57452
1132	10.2839
1136	12.5425
1140	44.995
1144	37.4658
1148	-12.8984
1152	4.86735
1156	-0.723463
1160	17.7637
1164	16.9831
1168	-1.10447
1172	-11.6221
1176	34.4709
1180	10.6072
1184	19.7164
1188	4.68857
1192	-10.364
1196	28.7713
1200	25.535
1204	35.9296
1208	4.51214
1212	5.66545
1216	3.86256
1220	2.56541
1224	-17.8911
1228	13.6418
1232	3.53589
1236	0.473178
1240	0.873542
1244	29.9892
1248	24.1885
1252	45.5739
1256	21.4349
1260	41.6945
1264	60.8028
1268	51.5641
1272	1.46737
1276	50.36
1280	42.7275
1284	24.4616
1288	-18.967
1292	25.3022
1296	20.6438
1300	13.3654
1304	-11.033
1308	13.9421
1312	-16.4436
1316	0.65432
1320	16.425
1324	11.5491
1328	2.41646
1332	-2.16231
1336	18.4654
1340	3.94081
1344	1.12831
1348	-1.52038
1352	17.9782
1356	4.42738
1360	6.04928
1364	19.4256
1368	9.21871
1372	39.3753
1376	-5.37467
1380	3.64664
1384	3.08998
1388	20.0164
1392	2.34751
1396	23.9317
1400	29.0414
1404	20.8804
1408	1.31291
1412	45.442
1416	11.7876
1420	25.6433
1424	48.8236
1428	-17.7407
1432	3.64545
1436	13.0685
1440	5.85742
1444	14.4161
1448	3.55351
1452	-2.04947
1456	5.43176
1460	5.02046
1464	13.9877
1468	1.02098
1472	17.8447
1476	0.289289
1480	50.1939
1484	31.3615
1488	21.3564
1492	7.21978
1496	3.86837
1500	-10.4306
1504	53.0759
1508	2.31991
1512	0.540967
1516	1.00405
1520	30.8829
1524	-6.72334
1528	3.15142
1532	10.641
1536	1.92199
1540	4.25649
1544	-10.6824
1548	27.9246
1552	17.69
1556	-3.0237
1560	-8.43985
1564	-1.247
1568	0.952446
1572	12.943
1576	157.239
1580	252.278
1584	262.413
1588	104.084
1592	-1.05729
1596	-17.7116
1600	-1.4041
1604	20.6858
1608	-16.6728
1612	41.9842
1616	-6.05297
1620	25.1648
1624	11.6731
1628	31.5907
1632	15.5992
1636	5.26691
1640	26.0861
1644	-9.40641
1648	15.9289
