Raman shift (cm-1)	intensity
320	10.1669
324	-1.81057
328	-4.80694
332	1.86944
336	44.4405
340	-3.69833
344	28.8922
348	37.9805
352	38.767
356	-5.15415
360	52.331
364	-2.56305
368	-7.48474
372	19.1433
376	23.5864
380	27.4872
384	-9.17361
388	22.5102
392	-3.8709
396	-18.4025
400	5.35974
404	-14.5962
408	6.6578
412	98.1809
416	203.661
420	220.29
424	256.188
428	164.548
432	63.5292
436	22.9558
440	-14.9196
444	-1.27728
448	24.3271
452	36.9365
456	14.6454
460	14.8636
464	26.4577
468	-21.2672
472	-7.11545
476	-0.171249
480	14.119
484	-3.23812
488	77.4923
492	24.8281
496	-24.8179
500	11.686
504	-17.8341
508	58.0804
512	72.4219
516	119.369
520	152.863
524	133.547
528	136.751
532	25.0122
536	32.8404
540	8.47412
544	16.6169
548	26.6839
552	8.04246
556	83.1072
560	-9.89962
564	3.22835
568	23.8869
572	-3.72866
576	-2.35727
580	4.82612
584	20.9069
588	-6.39118
592	-1.10461
596	46.0058
600	11.2142
604	-8.69514
608	-3.65308
612	3.06434
616	25.8662
620	14.3135
624	23.3674
628	-16.1226
632	46.226
636	25.7008
640	-1.7981
644	49.3231
648	-16.6196
652	29.546
656	43.401
660	-1.5689
664	55.4552
668	-14.5169
672	25.4045
676	11.502
680	1.53902
684	12.2525
688	29.6929
692	18.4692
696	19.6845
700	-7.89296
704	37.0222
708	0.289883
712	30.4139
716	30.0149
720	9.03725
724	0.995041
728	-5.11295
732	-6.78133
736	16.9343
740	-8.07295
744	14.1029
748	15.1532
752	18.6021
756	38.6057
760	9.58377
764	17.5171
768	18.1684
772	12.8171
776	10.2476
780	28.8326
784	3.12439
788	28.2142
792	4.07202
796	25.126
800	12.3689
804	6.7579
808	49.0833
812	6.42625
816	-5.5086
820	29.2164
824	-14.622
828	-9.7692
832	5.78025
836	-0.741108
840	5.03754
844	27.0991
848	35.1756
852	20.8612
856	-1.8193
860	8.27412
864	15.735
868	0.907531
872	32.9876
876	8.04158
880	11.4492
884	13.2295
888	-1.79054
892	33.0957
896	19.3605
900	7.32675
904	-4.79091
908	9.19918
912	-1.7392
916	8.82262
920	26.5598
924	32.2532
928	27.3917
932	76.2003
936	-16.4882
940	-0.570067
944	39.4801
948	4.89878
952	18.368
956	30.7343
960	30.4989
964	18.7139
968	-12.1283
972	-12.5914
976	14.822
980	12.6755
984	-4.62499
988	15.1458
992	35.7369
996	37.9753
1000	13.9779
1004	-8.93993
1008	4.82747
1012	8.27389
1016	40.3732
1020	6.03701
1024	45.8691
1028	40.631
1032	-2.7744
1036	12.5945
1040	17.7916
1044	-10.1112
1048	-2.57834
1052	20.6759
1056	-22.0282
1060	0.735911
1064	-1.07344
1068	72.0974
1072	249.198
1076	339.819
1080	268.223
1084	92.5061
1088	18.2174
1092	-29.8617
1096	1.05673
1100	-9.15563
1104	15.4726
1108	-20.3579
1112	28.743
1116	-2.34189
1120	-8.96132
1124	-0.263212
1128	11.2127
1132	8.4629
1136	19.7003
1140	32.1716
1144	13.0719
1148	14.8377
1152	1.99752
1156	8.18613
1160	12.7351
1164	-11.9777
1168	40.1591
1172	-1.42544
1176	11.384
1180	37.6757
1184	14.8381
1188	-11.8382
1192	52.4858
1196	15.5683
1200	-2.35437
1204	42.1691
1208	54.3449
1212	32.6271
1216	-16.4487
1220	52.9143
1224	34.6147
1228	-5.51364
1232	-3.88925
1236	-12.5631
1240	45.5733
1244	13.4277
1248	33.6394
1252	58.4802
1256	80.6439
1260	75.1831
1264	79.5885
1268	44.6405
1272	33.1321
1276	-4.86818
1280	16.0211
1284	27.0914
1288	0.177285
1292	-11.3078
1296	0.313076
1300	29.6326
1304	24.5127
1308	-7.01293
1312	-1.47656
1316	13.4588
1320	-6.95423
1324	19.7081
1328	1.22606
1332	36.9661
1336	0.0446395
1340	-19.0783
1344	27.7678
1348	-2.81088
1352	17.5671
1356	4.61626
1360	35.588
1364	20.7678
1368	13.0656
1372	25.7164
1376	25.5787
1380	-5.62416
1384	11.9831
1388	-7.27975
1392	34.4342
1396	1.11922
1400	9.36187
1404	26.5334
1408	40.5911
1412	-1.4827
1416	31.7926
1420	-0.747203
1424	27.8762
1428	5.35062
1432	31.8366
1436	-10.8258
1440	36.8144
1444	-6.06533
1448	47.0923
1452	-13.4155
1456	21.2736
1460	14.0916
1464	2.36599
1468	-18.3867
1472	35.1189
1476	21.737
1480	7.23383
1484	28.455
1488	11.1632
1492	10.7501
1496	-1.53017
1500	-2.6747
1504	24.3365
1508	11.2469
1512	-5.81869
1516	24.5048
1520	-6.04034
1524	32.667
1528	20.9405
1532	-18.9718
1536	14.2952
1540	21.1975
1544	-12.8615
1548	-6.49338
1552	22.4916
1556	24.8495
1560	-4.17609
1564	0.494162
1568	8.32149
1572	19.5572
1576	171.638
1580	254.632
1584	223.518
1588	109.866
1592	-1.58126
1596	-10.8416
1600	-17.2392
1604	21.3201
1608	14.9069
1612	-11.2976
1616	19.2531
1620	18.2519
1624	2.65699
1628	21.1881
1632	12.9174
1636	29.1585
1640	-3.38579
1644	4.72417
1648	-4.90405
