Raman shift (cm-1)	intensity
320	38.0354
324	89.7358
328	170.119
332	181.241
336	192.902
340	138.731
344	95.272
348	11.6131
352	23.593
356	14.5223
360	-3.44674
364	-3.71057
368	-7.78346
372	6.83228
376	3.08645
380	3.37814
384	-12.284
388	13.5982
392	-15.4797
396	5.56827
400	67.106
404	233.904
408	526.699
412	723.086
416	814.401
420	780.341
424	650.584
428	472.261
432	314.759
436	131.237
440	53.247
444	89.8747
448	81.5264
452	91.9287
456	73.8033
460	39.1201
464	-11.4192
468	-0.611484
472	17.8979
476	-4.60861
480	11.2519
484	-4.36111
488	51.3923
492	3.55674
496	-1.02924
500	20.1835
504	169.247
508	356.888
512	632.912
516	854.017
520	913.47
524	736.705
528	576.513
532	428.659
536	351.357
540	276.346
544	256.133
548	234.626
552	173.945
556	90.4169
560	20.9771
564	-1.68247
568	35.7553
572	19.525
576	-4.67238
580	-0.693366
584	15.897
588	33.5169
592	31.7601
596	-7.21657
600	-10.1317
604	-1.24305
608	-6.35417
612	15.5091
616	30.8153
620	13.0869
624	55.4011
628	79.2155
632	84.8618
636	65.7176
640	68.2596
644	74.9264
648	29.8378
652	8.99678
656	17.5866
660	-0.362628
664	13.077
668	14.2857
672	2.75082
676	14.7666
680	-1.04467
684	19.2706
688	105.646
692	146.526
696	115.206
700	65.3439
704	1.65823
708	39.106
712	110.296
716	120.385
720	165.059
724	122.67
728	65.722
732	51.1007
736	20.3466
740	-2.98704
744	10.2853
748	3.02643
752	35.8312
756	30.1305
760	25.9315
764	13.0499
768	53.4877
772	57.8255
776	4.6341
780	14.4483
784	56.7595
788	67.1299
792	73.3832
796	58.2312
800	35.7839
804	61.8615
808	3.65907
812	19.4429
816	-1.74395
820	40.1738
824	57.8992
828	83.401
832	87.514
836	65.8488
840	110.829
844	163.84
848	165.907
852	127.634
856	107.072
860	46.4653
864	30.1447
868	21.181
872	58.9448
876	24.6064
880	32.2655
884	18.522
888	0.353066
892	12.9187
896	21.9177
900	12.9257
904	26.6445
908	34.9529
912	32.3816
916	8.59551
920	8.62657
924	3.82979
928	88.5474
932	32.2112
936	27.8529
940	3.10809
944	61.2279
948	35.9709
952	50.148
956	17.6961
960	42.5409
964	7.40441
968	-1.8927
972	13.5662
976	1.90675
980	5.00593
984	-1.27703
988	3.78309
992	14.3971
996	248.481
1000	502.072
1004	307.959
1008	41.8186
1012	36.4609
1016	90.7339
1020	222.391
1024	341.99
1028	176.239
1032	46.5948
1036	-3.60732
1040	-4.37111
1044	20.6129
1048	-17.3765
1052	-8.02086
1056	-5.77643
1060	95.0675
1064	420.466
1068	1028.86
1072	1956.85
1076	2664.77
1080	2599.74
1084	1838.86
1088	877.784
1092	232.507
1096	12.1537
1100	-37.1132
1104	3.22058
1108	3.97963
1112	-17.7073
1116	5.48751
1120	7.51411
1124	2.82896
1128	-4.13749
1132	29.4687
1136	66.7108
1140	66.1948
1144	51.3569
1148	-0.225295
1152	-9.23746
1156	12.9945
1160	0.901655
1164	8.19153
1168	50.921
1172	116.151
1176	142.73
1180	253.076
1184	255.61
1188	99.749
1192	65.3195
1196	-0.434625
1200	24.8325
1204	48.4449
1208	91.2998
1212	56.9097
1216	-6.49505
1220	9.99885
1224	8.75278
1228	-1.27783
1232	58.7569
1236	77.5863
1240	201.501
1244	280.149
1248	333.253
1252	381.145
1256	426.167
1260	378.866
1264	357.281
1268	312.685
1272	281.325
1276	229.177
1280	178.282
1284	181.196
1288	124.201
1292	79.8016
1296	58.9705
1300	10.2218
1304	19.6504
1308	-4.41178
1312	20.2202
1316	-7.77531
1320	20.7312
1324	15.5726
1328	31.4274
1332	1.80253
1336	-0.147325
1340	4.01647
1344	0.082727
1348	3.78628
1352	25.1238
1356	40.3459
1360	27.3531
1364	15.1117
1368	-6.55955
1372	0.414403
1376	57.7002
1380	86.9728
1384	71.9396
1388	114.55
1392	185.59
1396	212.701
1400	246.439
1404	265.141
1408	294.452
1412	235.919
1416	181.818
1420	92.8094
1424	91.7054
1428	24.8817
1432	5.47488
1436	34.8234
1440	17.1856
1444	31.7693
1448	18.2643
1452	4.28312
1456	33.3164
1460	23.1321
1464	60.3528
1468	51.1225
1472	70.4781
1476	97.0735
1480	84.5777
1484	54.1063
1488	52.5243
1492	23.9641
1496	5.28755
1500	7.92004
1504	18.5188
1508	27.2888
1512	21.8364
1516	14.3308
1520	8.26444
1524	2.55229
1528	21.3506
1532	1.43063
1536	23.23
1540	2.44138
1544	-13.9327
1548	39.0086
1552	18.2264
1556	-8.21378
1560	-8.89953
1564	105.336
1568	383.047
1572	800.682
1576	1474.82
1580	1904.55
1584	1537.13
1588	782.751
1592	242.063
1596	50.9255
1600	-12.9097
1604	-14.1943
1608	-15.349
1612	-0.157553
1616	13.714
1620	2.20352
1624	10.9983
1628	-2.16316
1632	-4.67682
1636	53.0878
1640	4.27522
1644	23.0427
1648	-7.74183
