Raman shift (cm-1)	intensity
320	0.904537
324	28.9566
328	78.352
332	117.702
336	89.3308
340	102.848
344	93.8938
348	80.1091
352	-4.82387
356	36.3235
360	27.4214
364	-7.32229
368	24.5885
372	21.936
376	5.10408
380	22.4019
384	34.7937
388	4.90209
392	-10.6136
396	-15.7903
400	4.56456
404	60.7082
408	205.048
412	301.296
416	429.39
420	466.428
424	397.694
428	324.582
432	185.259
436	106.306
440	20.788
444	40.2608
448	66.2809
452	105.523
456	57.2506
460	16.8786
464	9.74284
468	-5.61265
472	1.44874
476	-15.8541
480	32.3712
484	27.8696
488	51.1125
492	-5.92964
496	20.7643
500	-25.6034
504	31.2827
508	148.186
512	288.205
516	454.797
520	513.477
524	388.182
528	203.559
532	116.652
536	27.6361
540	19.5217
544	95.1658
548	93.4615
552	73.2955
556	24.9174
560	-3.62595
564	-3.07561
568	-18.6346
572	12.698
576	-15.9883
580	3.65221
584	4.65406
588	14.474
592	16.8587
596	19.5663
600	26.032
604	-0.0382284
608	-3.87767
612	-2.36864
616	3.22493
620	48.1097
624	0.0696955
628	44.9862
632	60.4843
636	56.9185
640	65.7819
644	48.0211
648	3.15551
652	23.1095
656	43.0865
660	2.60557
664	-9.8666
668	10.7172
672	36.8254
676	-4.09625
680	15.8643
684	23.3497
688	34.806
692	51.5046
696	58.1519
700	-0.313519
704	41.3656
708	54.1577
712	96.8903
716	125.919
720	90.808
724	82.6821
728	67.499
732	64.1298
736	-5.82888
740	14.6536
744	7.63465
748	9.7249
752	-0.043482
756	30.5692
760	16.6573
764	13.6786
768	8.72646
772	22.2984
776	12.9637
780	13.4199
784	24.3972
788	14.6455
792	13.4689
796	14.1143
800	38.6666
804	63.0778
808	-0.326355
812	16.3847
816	1.65096
820	26.2416
824	9.23998
828	11.1767
832	22.6556
836	24.0796
840	44.2435
844	80.129
848	61.4317
852	40.1353
856	16.0974
860	12.4844
864	34.1886
868	-2.00881
872	41.8106
876	38.2132
880	3.05477
884	12.2108
888	6.09571
892	14.8988
896	25.1429
900	36.2774
904	25.2659
908	23.8629
912	-2.50735
916	2.57267
920	32.0426
924	9.34429
928	79.8264
932	34.7832
936	19.444
940	25.4609
944	-4.12916
948	3.89995
952	19.7895
956	49.7855
960	62.911
964	29.9085
968	-1.25281
972	4.14605
976	35.0594
980	39.9601
984	42.8465
988	-14.2839
992	42.3157
996	86.3241
1000	119.57
1004	88.3007
1008	6.53314
1012	-0.542395
1016	16.0255
1020	83.3854
1024	111.113
1028	46.7916
1032	12.8345
1036	-18.6379
1040	9.38351
1044	6.26516
1048	-13.1274
1052	-8.47431
1056	-13.9231
1060	4.23775
1064	66.3795
1068	426.543
1072	938.36
1076	1457.91
1080	1446.78
1084	959.682
1088	385.88
1092	38.4002
1096	-34.9694
1100	-21.1443
1104	-11.9396
1108	-18.7809
1112	4.78565
1116	23.8942
1120	13.5215
1124	-1.97469
1128	-1.00274
1132	81.5476
1136	85.2164
1140	96.9979
1144	43.0404
1148	47.9578
1152	-1.78691
1156	-6.51116
1160	28.7372
1164	-6.38861
1168	-3.25963
1172	47.2996
1176	44.264
1180	94.7684
1184	148.453
1188	65.8309
1192	6.20146
1196	42.6864
1200	9.17573
1204	56.2925
1208	58.0844
1212	47.8658
1216	15.2691
1220	-11.9359
1224	21.8468
1228	-20.4064
1232	15.2388
1236	62.634
1240	131.355
1244	215.406
1248	270.505
1252	267.14
1256	276.266
1260	274.537
1264	245.766
1268	175.369
1272	131.842
1276	74.1327
1280	22.1601
1284	31.5192
1288	45.0522
1292	23.6456
1296	19.1403
1300	-19.5774
1304	38.6398
1308	12.7245
1312	4.8606
1316	35.3442
1320	37.872
1324	-18.9578
1328	27.4403
1332	13.2516
1336	4.45097
1340	19.2616
1344	-11.9516
1348	40.6383
1352	24.5104
1356	44.757
1360	49.0935
1364	47.0347
1368	16.7738
1372	26.9125
1376	30.0499
1380	19.4348
1384	16.685
1388	21.6923
1392	24.3594
1396	79.1944
1400	75.2008
1404	114.724
1408	72.4016
1412	63.0709
1416	7.93475
1420	54.3021
1424	1.69032
1428	35.2646
1432	11.3111
1436	-13.7596
1440	42.2709
1444	10.76
1448	41.6206
1452	-10.2014
1456	21.6126
1460	14.6975
1464	9.60034
1468	37.1506
1472	47.9958
1476	72.4942
1480	80.6744
1484	56.382
1488	-10.012
1492	35.8155
1496	-7.57253
1500	34.5526
1504	57.7577
1508	-20.9683
1512	47.4639
1516	12.6665
1520	44.1951
1524	27.3219
1528	15.1686
1532	-1.86544
1536	22.4221
1540	0.208498
1544	2.95496
1548	0.944396
1552	25.0744
1556	-2.75597
1560	-49.0057
1564	1.33552
1568	142.33
1572	494.176
1576	958.243
1580	1225.6
1584	941.319
1588	385.421
1592	43.0501
1596	-5.54563
1600	-10.7457
1604	0.704782
1608	-14.1197
1612	21.6768
1616	11.8243
1620	15.0501
1624	19.4614
1628	47.2738
1632	8.97741
1636	4.15811
1640	24.3894
1644	43.7869
1648	-1.26994
