Raman shift (cm-1)	intensity
320	-23.4157
324	15.6089
328	54.2404
332	22.3798
336	63.4215
340	-14.3255
344	20.3459
348	46.2791
352	12.5507
356	14.6377
360	-32.3735
364	37.1807
368	29.1957
372	14.4992
376	13.749
380	-3.33774
384	2.10556
388	-4.95973
392	-17.7799
396	8.42956
400	-8.92071
404	-20.4493
408	64.755
412	29.0632
416	72.9704
420	121.733
424	176.317
428	138.031
432	58.3876
436	47.0568
440	15.2351
444	-4.15103
448	30.2863
452	44.7677
456	26.7705
460	63.4441
464	-38.9195
468	-5.22897
472	-2.37376
476	11.6704
480	-18.1654
484	-6.65406
488	14.281
492	-6.12899
496	-8.19333
500	-28.3859
504	-7.61955
508	39.676
512	62.1323
516	219.518
520	172.031
524	70.221
528	81.4312
532	24.3147
536	-1.37769
540	57.0338
544	21.5286
548	101.378
552	31.1933
556	9.24306
560	37.7427
564	-21.8059
568	-0.388583
572	12.0689
576	-32.416
580	16.975
584	19.418
588	-4.9946
592	24.1185
596	4.70473
600	20.2277
604	1.10675
608	-7.19458
612	-14.3856
616	13.0004
620	42.1012
624	-5.37405
628	-3.31165
632	18.6692
636	12.355
640	4.44364
644	8.98337
648	31.9628
652	2.55964
656	17.5852
660	-2.49704
664	7.51778
668	22.3752
672	17.6737
676	-0.438271
680	-7.94632
684	20.4257
688	-2.28218
692	9.19232
696	43.9602
700	23.1803
704	10.1645
708	-9.09494
712	43.2137
716	26.2842
720	27.0156
724	19.7409
728	24.4835
732	-0.574861
736	6.05666
740	-6.72463
744	-22.135
748	41.3458
752	35.5872
756	12.86
760	-7.45019
764	26.0631
768	9.35597
772	41.7774
776	9.86028
780	-6.22875
784	16.1751
788	31.0778
792	10.3937
796	49.4985
800	-1.28839
804	36.8592
808	2.36592
812	14.4017
816	-1.77847
820	41.867
824	9.18831
828	13.8028
832	3.11279
836	-3.87338
840	-2.1229
844	31.1527
848	14.9749
852	-7.81855
856	11.5624
860	33.4607
864	-3.65386
868	-0.269091
872	18.4293
876	27.8203
880	13.5148
884	37.3944
888	41.4949
892	2.89847
896	10.6153
900	-14.3117
904	36.4841
908	55.5742
912	10.2055
916	23.8011
920	-8.45707
924	-1.00734
928	36.7804
932	12.3936
936	11.494
940	18.7457
944	-5.06018
948	18.8656
952	-6.27661
956	28.0309
960	24.6535
964	13.5726
968	2.78808
972	2.88728
976	19.2759
980	7.10086
984	-0.913792
988	49.9435
992	64.8097
996	10.1566
1000	24.6426
1004	-6.20872
1008	11.4008
1012	7.48361
1016	5.90588
1020	31.1552
1024	-11.9838
1028	-0.822245
1032	40.5473
1036	0.611402
1040	19.6826
1044	34.6091
1048	-2.60582
1052	-17.7796
1056	-1.2147
1060	-22.5816
1064	0.54978
1068	14.3826
1072	237.437
1076	424.577
1080	411.737
1084	232.014
1088	18.9491
1092	-3.10771
1096	-4.24542
1100	-5.73304
1104	-3.07516
1108	1.99321
1112	9.20803
1116	-3.45261
1120	2.48467
1124	11.5835
1128	-7.08371
1132	44.7663
1136	44.1036
1140	26.2792
1144	15.0776
1148	24.2123
1152	4.35368
1156	-19.2352
1160	14.1972
1164	57.8733
1168	-8.4501
1172	23.153
1176	8.88587
1180	9.46979
1184	54.1712
1188	-10.2231
1192	19.9847
1196	-13.7174
1200	6.69639
1204	74.2939
1208	41.6482
1212	10.533
1216	45.6769
1220	-11.0331
1224	5.31123
1228	25.4597
1232	-23.9448
1236	9.43605
1240	18.3675
1244	33.5728
1248	51.2598
1252	41.0159
1256	48.9171
1260	39.689
1264	37.6894
1268	70.7865
1272	41.9987
1276	38.8515
1280	6.8879
1284	-6.3856
1288	13.7526
1292	10.4977
1296	-7.11367
1300	37.6261
1304	5.88175
1308	12.876
1312	-19.3035
1316	7.95609
1320	-4.73985
1324	38.648
1328	-5.80511
1332	44.4446
1336	21.7573
1340	-17.2894
1344	41.3344
1348	30.0923
1352	6.85476
1356	8.29189
1360	36.8723
1364	2.72186
1368	4.70572
1372	7.46767
1376	16.0407
1380	15.9563
1384	3.59535
1388	23.4389
1392	14.0811
1396	9.02194
1400	28.6951
1404	-1.49408
1408	11.8191
1412	3.97853
1416	25.6829
1420	6.42086
1424	-15.0254
1428	32.8543
1432	-6.97173
1436	17.6006
1440	31.2784
1444	25.8743
1448	30.0185
1452	-6.57139
1456	58.6497
1460	27.0698
1464	-1.84364
1468	14.3822
1472	-5.18869
1476	51.5221
1480	11.0373
1484	27.7945
1488	5.83643
1492	-8.769
1496	15.443
1500	-9.83774
1504	3.34529
1508	27.3918
1512	-1.22527
1516	17.0778
1520	-2.87792
1524	40.6692
1528	-9.90643
1532	8.7977
1536	32.5966
1540	-16.3451
1544	3.31599
1548	5.64038
1552	4.39467
1556	19.831
1560	-7.97252
1564	-32.1425
1568	0.617727
1572	46.6848
1576	85.2125
1580	258.958
1584	288.722
1588	133.567
1592	-0.158697
1596	-14.6773
1600	-12.0537
1604	12.6112
1608	24.1697
1612	18.933
1616	13.9435
1620	-3.80841
1624	17.0031
1628	0.582884
1632	42.2697
1636	0.278493
1640	-6.70649
1644	38.7922
1648	-7.48762
