Raman shift (cm-1)	intensity
320	-6.27048
324	-12.2307
328	3.00874
332	16.9528
336	40.3678
340	1.19498
344	51.2574
348	46.8145
352	21.2546
356	-2.58306
360	23.2823
364	4.18889
368	34.4287
372	78.0065
376	74.3732
380	59.5111
384	15.3436
388	-20.9334
392	-21.7031
396	4.07162
400	-21.4659
404	20.7469
408	-0.238321
412	101.561
416	194.755
420	260.111
424	282.958
428	212.535
432	183.073
436	48.8143
440	4.0767
444	-0.914975
448	-4.99907
452	27.693
456	18.1829
460	23.7573
464	7.33352
468	-16.4987
472	-8.6687
476	-14.0586
480	-5.8978
484	12.5375
488	19.4384
492	-6.07855
496	-2.59644
500	-8.57915
504	29.6095
508	132.886
512	201.665
516	261.76
520	250.93
524	208.589
528	152.713
532	66.2529
536	73.9014
540	116.517
544	112.493
548	84.1207
552	55.8442
556	20.4267
560	18.0604
564	-6.10964
568	-1.90738
572	-4.31136
576	-11.6264
580	-7.41863
584	20.0961
588	15.7919
592	6.15494
596	2.58658
600	54.9669
604	-6.92282
608	3.83492
612	24.7212
616	-20.8302
620	46.3959
624	41.9557
628	38.0036
632	29.2484
636	10.8085
640	26.0243
644	35.843
648	41.8033
652	2.79551
656	-5.82809
660	-5.70046
664	48.3844
668	36.2594
672	31.0922
676	-9.75749
680	50.9462
684	-11.5963
688	26.1626
692	27.8108
696	-9.92256
700	14.8357
704	5.55331
708	15.1359
712	8.27023
716	26.9115
720	13.9097
724	-9.73306
728	-26.023
732	13.2356
736	28.4736
740	1.05217
744	-19.0834
748	26.4711
752	19.6047
756	-5.34129
760	9.12872
764	10.5849
768	24.6353
772	22.0547
776	6.70689
780	8.70732
784	-10.6374
788	42.6263
792	13.7221
796	14.3717
800	29.7528
804	17.2485
808	5.19894
812	40.524
816	11.8042
820	3.20922
824	16.2425
828	13.3605
832	28.1219
836	-19.9024
840	3.08478
844	26.7075
848	16.7744
852	4.34057
856	24.7219
860	15.2406
864	31.6383
868	-17.0387
872	9.99776
876	24.5634
880	24.4175
884	5.68401
888	-6.83053
892	22.2037
896	25.5999
900	9.77901
904	30.7492
908	0.499618
912	3.80065
916	27.9527
920	-0.21853
924	17.3124
928	28.0187
932	32.9541
936	1.80205
940	38.4719
944	4.68023
948	-2.5912
952	20.8267
956	0.78622
960	25.2589
964	23.389
968	37.1718
972	-1.16218
976	12.962
980	28.8054
984	-8.87364
988	14.1732
992	7.37867
996	53.1328
1000	41.5201
1004	-11.6496
1008	55.5455
1012	-11.7846
1016	32.8989
1020	66.0007
1024	-18.7261
1028	22.7043
1032	13.9565
1036	16.1935
1040	18.9006
1044	-5.07219
1048	30.0464
1052	-35.2498
1056	29.8646
1060	-14.2516
1064	-39.9321
1068	47.7999
1072	262.158
1076	451.263
1080	462.172
1084	304.043
1088	50.4002
1092	-15.4559
1096	-11.1701
1100	-18.4876
1104	19.4943
1108	17.2485
1112	27.0118
1116	-19.3035
1120	15.9223
1124	8.89261
1128	-4.87053
1132	4.5739
1136	14.2673
1140	34.1016
1144	12.0204
1148	10.7922
1152	18.4464
1156	-18.5002
1160	10.8057
1164	39.6612
1168	-26.1308
1172	26.3013
1176	41.8822
1180	30.4278
1184	20.8249
1188	-10.1233
1192	-0.337449
1196	32.6993
1200	18.622
1204	58.2113
1208	107.647
1212	67.4152
1216	66.5568
1220	-26.3008
1224	12.6611
1228	2.38272
1232	-12.5823
1236	0.386753
1240	12.6821
1244	9.48415
1248	38.9776
1252	42.1588
1256	88.3188
1260	21.4262
1264	8.92151
1268	11.9333
1272	54.0333
1276	8.18405
1280	4.00489
1284	22.8694
1288	0.344232
1292	7.13671
1296	11.5091
1300	-11.1991
1304	2.68269
1308	17.7858
1312	-10.2601
1316	23.942
1320	30.3138
1324	17.3972
1328	42.606
1332	-13.1247
1336	60.6799
1340	6.95608
1344	21.4635
1348	-7.82639
1352	10.3242
1356	2.22882
1360	23.8476
1364	26.0228
1368	-7.16722
1372	32.9289
1376	4.06628
1380	6.25285
1384	24.8712
1388	3.11057
1392	24.0965
1396	18.2772
1400	2.92216
1404	20.9125
1408	21.8328
1412	31.3586
1416	-2.23067
1420	43.6912
1424	12.6557
1428	7.83781
1432	2.15646
1436	40.8699
1440	3.49824
1444	-10.7371
1448	0.671974
1452	38.9267
1456	8.6502
1460	12.6823
1464	3.2869
1468	-10.2012
1472	49.3064
1476	22.7566
1480	11.5259
1484	43.319
1488	9.03682
1492	-2.1136
1496	14.7554
1500	12.4379
1504	33.2528
1508	8.32047
1512	1.99799
1516	17.4541
1520	4.82204
1524	3.96475
1528	-5.16851
1532	22.2789
1536	28.3019
1540	-18.195
1544	20.6685
1548	13.0578
1552	15.2531
1556	2.96474
1560	-10.5996
1564	-20.8794
1568	9.50613
1572	-3.30796
1576	174.318
1580	340.87
1584	354.286
1588	166.129
1592	16.3234
1596	-18.9831
1600	0.516828
1604	-21.5778
1608	37.4569
1612	15.7228
1616	27.3169
1620	-9.80832
1624	2.64775
1628	8.29897
1632	3.42417
1636	-0.0707304
1640	27.0169
1644	-7.4642
1648	-0.0358291
