Raman shift (cm-1)	intensity
320	-13.711
324	3.71769
328	22.9812
332	6.25144
336	43.0478
340	4.29713
344	7.57263
348	35.774
352	60.5918
356	48.6914
360	13.9928
364	24.9793
368	10.3651
372	11.6264
376	-5.92614
380	24.9641
384	-16.7133
388	-2.60994
392	6.94377
396	53.9586
400	-11.8694
404	-1.16057
408	7.77578
412	39.4113
416	81.9253
420	13.7431
424	69.0004
428	67.7881
432	71.0458
436	-0.475063
440	-11.0592
444	6.47443
448	45.9396
452	53.4791
456	7.13052
460	31.9525
464	-8.00907
468	-9.74558
472	33.2498
476	2.64983
480	-1.07994
484	-0.937685
488	37.1443
492	-4.67455
496	14.5453
500	-18.3525
504	4.43597
508	10.4375
512	27.5251
516	127.521
520	129.51
524	108.395
528	41.4514
532	6.9823
536	5.15852
540	38.8468
544	10.8336
548	-8.39406
552	22.5744
556	9.09912
560	12.8053
564	27.7223
568	-24.4412
572	27.9055
576	21.4913
580	-6.85098
584	8.62109
588	28.4098
592	-3.46794
596	13.5989
600	35.4203
604	4.84987
608	17.2681
612	-14.1027
616	-8.53667
620	22.8748
624	4.58923
628	19.9213
632	24.9084
636	7.41041
640	20.8374
644	14.8784
648	12.2626
652	-8.9616
656	22.4134
660	46.7182
664	-1.84266
668	7.68933
672	38.095
676	-7.21157
680	29.9151
684	-11.0607
688	44.3382
692	3.51738
696	19.1047
700	-4.77711
704	-1.30248
708	7.82062
712	0.581781
716	31.1907
720	17.7398
724	25.7477
728	0.954257
732	-2.93572
736	26.2708
740	-3.20727
744	-12.5761
748	14.4366
752	-13.0104
756	31.2633
760	-2.43421
764	11.1249
768	43.5983
772	6.68255
776	7.79518
780	3.97127
784	-7.59965
788	44.5235
792	12.0593
796	17.5294
800	13.854
804	40.1878
808	14.3857
812	11.5465
816	-0.786418
820	8.52301
824	16.2674
828	26.859
832	-16.5908
836	69.6086
840	37.0653
844	-17.8152
848	49.6492
852	3.96785
856	20.9022
860	22.6305
864	-15.6778
868	19.084
872	30.3751
876	-8.87484
880	36.3001
884	26.8927
888	12.1215
892	-5.16848
896	15.7228
900	-4.7757
904	6.26638
908	-1.87366
912	5.12299
916	59.6113
920	-3.74331
924	29.7759
928	-19.8264
932	46.1402
936	38.7284
940	3.15273
944	-6.45179
948	38.643
952	12.0239
956	-3.67894
960	44.8408
964	-24.4302
968	41.929
972	26.1418
976	-4.28172
980	7.25767
984	-4.35798
988	17.6238
992	20.31
996	28.1036
1000	-7.73829
1004	-0.297419
1008	-0.168996
1012	2.77764
1016	60.5
1020	0.286265
1024	7.31379
1028	14.465
1032	-11.3429
1036	-10.9438
1040	4.55535
1044	11.8405
1048	-7.11745
1052	-6.60873
1056	-13.4146
1060	-7.81934
1064	-18.4325
1068	80.7352
1072	306.413
1076	514.339
1080	464.581
1084	298.431
1088	8.84473
1092	-8.23656
1096	-10.2161
1100	-8.36164
1104	16.6776
1108	7.06884
1112	-9.47699
1116	27.8211
1120	-11.2877
1124	53.0862
1128	46.0373
1132	-10.988
1136	42.7714
1140	28.0999
1144	21.2996
1148	-12.4254
1152	-2.58065
1156	5.3605
1160	23.1351
1164	18.4407
1168	6.1514
1172	-13.6341
1176	38.5878
1180	32.1777
1184	39.1149
1188	2.88119
1192	24.2696
1196	1.54797
1200	-7.69859
1204	3.26602
1208	25.0985
1212	9.5528
1216	35.0037
1220	4.60878
1224	-4.70512
1228	12.8907
1232	-5.1935
1236	9.25733
1240	47.4607
1244	16.2098
1248	3.36167
1252	40.0972
1256	42.9725
1260	38.6335
1264	24.7738
1268	40.0471
1272	34.2286
1276	6.20736
1280	0.208021
1284	-2.46087
1288	3.28952
1292	-2.28488
1296	23.5485
1300	-2.00907
1304	-0.185642
1308	27.7863
1312	39.9196
1316	-0.285238
1320	2.7584
1324	28.7311
1328	-9.43633
1332	-6.23523
1336	41.4344
1340	17.4676
1344	5.43768
1348	2.56617
1352	49.9018
1356	19.3511
1360	8.34569
1364	11.5711
1368	5.71796
1372	-10.4159
1376	26.2273
1380	14.9994
1384	30.5499
1388	6.43185
1392	-12.3113
1396	13.2816
1400	38.3102
1404	7.8898
1408	13.6468
1412	32.4346
1416	-5.86132
1420	38.3337
1424	-25.3948
1428	32.8062
1432	26.9803
1436	-2.35638
1440	2.63209
1444	8.82203
1448	16.531
1452	9.25908
1456	-9.90943
1460	38.7754
1464	40.7524
1468	-8.94825
1472	25.6706
1476	10.6842
1480	35.4334
1484	30.2728
1488	9.69954
1492	2.55611
1496	-6.61125
1500	23.9079
1504	1.70622
1508	34.5407
1512	6.10555
1516	-10.643
1520	11.5237
1524	-2.52951
1528	7.69118
1532	36.3732
1536	-12.0586
1540	6.21599
1544	7.45688
1548	15.7196
1552	-8.34559
1556	29.0351
1560	-29.2042
1564	-3.25515
1568	-8.3323
1572	26.1104
1576	203.866
1580	380.92
1584	350.166
1588	110.644
1592	12.704
1596	-30.3399
1600	-12.5293
1604	-4.66187
1608	22.0876
1612	10.8503
1616	27.1435
1620	-9.67141
1624	20.8193
1628	16.4038
1632	31.212
1636	-24.9262
1640	59.646
1644	10.3142
1648	23.6349
