Raman shift (cm-1)	intensity
320	-60.6659
324	-0.22497
328	36.0834
332	106.598
336	186.328
340	84.6592
344	159.104
348	167.753
352	175.784
356	57.5864
360	41.7401
364	-11.0474
368	-0.254026
372	-8.33567
376	17.5463
380	-38.2052
384	-39.411
388	32.5057
392	-34.0888
396	-15.641
400	-5.84117
404	12.5366
408	47.7191
412	82.1986
416	206.197
420	227.462
424	229.717
428	78.3472
432	93.0112
436	2.14496
440	8.8062
444	-5.49168
448	61.5475
452	94.6984
456	81.6942
460	54.204
464	0.0330209
468	-24.2029
472	19.8832
476	36.1261
480	-17.2313
484	32.8394
488	8.01899
492	1.06371
496	-24.0898
500	-38.6183
504	-18.3935
508	89.1388
512	354.888
516	507.068
520	432.033
524	197.465
528	26.7413
532	22.8747
536	-19.1928
540	-10.5942
544	20.0171
548	-0.4391
552	53.1742
556	62.1642
560	-23.4415
564	28.4621
568	18.6212
572	-15.4178
576	11.0181
580	-8.55518
584	67.4193
588	-1.91514
592	-10.1947
596	16.6874
600	38.0814
604	74.7838
608	-14.5581
612	11.354
616	29.0863
620	12.1924
624	39.1078
628	3.582
632	43.893
636	58.2042
640	32.2291
644	49.4925
648	29.0279
652	3.6606
656	-1.89444
660	14.8536
664	-1.8191
668	15.087
672	43.0653
676	15.5414
680	-8.63418
684	3.40858
688	138.573
692	23.3178
696	13.4069
700	19.4455
704	1.13321
708	7.11208
712	85.2443
716	72.9761
720	10.8674
724	0.404799
728	63.9761
732	36.4261
736	15.3131
740	-44.5309
744	-10.055
748	10.8651
752	9.2986
756	17.2031
760	17.9682
764	-13.7067
768	69.5204
772	61.1644
776	3.13728
780	-0.25844
784	6.80757
788	71.9075
792	22.355
796	32.3323
800	22.2097
804	9.23057
808	52.8144
812	-2.77823
816	49.6706
820	44.594
824	-7.80541
828	5.34059
832	-12.0571
836	25.1956
840	90.2798
844	61.7188
848	0.978076
852	-3.69575
856	-18.0084
860	33.3917
864	-4.12138
868	20.3129
872	-9.61335
876	7.55318
880	20.9249
884	2.19967
888	8.29924
892	12.2811
896	23.1133
900	5.70808
904	30.4992
908	13.5002
912	14.546
916	48.2846
920	-12.618
924	58.2218
928	44.8795
932	20.9821
936	29.8284
940	-17.0748
944	26.7684
948	2.82129
952	-15.3845
956	76.0823
960	54.2733
964	-35.7284
968	30.7633
972	1.09051
976	31.5698
980	-1.58687
984	3.63073
988	-0.530885
992	-11.4839
996	63.2562
1000	109.575
1004	54.2606
1008	-5.50641
1012	21.5383
1016	56.6195
1020	13.5195
1024	6.45913
1028	10.5982
1032	10.4023
1036	-4.48903
1040	21.0756
1044	-0.608018
1048	-16.4675
1052	-61.0241
1056	-59.4556
1060	-25.267
1064	6.23709
1068	335.62
1072	1050.91
1076	1434.44
1080	1197.65
1084	529.255
1088	17.0972
1092	-41.5415
1096	-84.0604
1100	-29.8829
1104	1.31683
1108	-30.6139
1112	5.14526
1116	13.4947
1120	8.05214
1124	1.89501
1128	40.4949
1132	30.9499
1136	69.4414
1140	118.233
1144	25.2081
1148	-9.78622
1152	33.6946
1156	-22.749
1160	12.7104
1164	-13.0988
1168	0.789555
1172	28.7876
1176	93.0347
1180	113.303
1184	80.4922
1188	-40.904
1192	59.906
1196	-11.539
1200	-6.43805
1204	63.2961
1208	48.8136
1212	-2.1387
1216	3.24862
1220	36.2917
1224	-8.53665
1228	19.1283
1232	0.067612
1236	4.25148
1240	5.35746
1244	53.7567
1248	33.4396
1252	25.3585
1256	29.7716
1260	34.0876
1264	38.1999
1268	55.53
1272	31.0002
1276	-2.34612
1280	-4.35127
1284	6.89047
1288	39.4953
1292	-5.00023
1296	40.0355
1300	-5.82685
1304	1.11146
1308	-13.8521
1312	8.39443
1316	-4.1784
1320	12.759
1324	-21.9282
1328	68.2477
1332	39.3292
1336	4.65996
1340	-6.05342
1344	27.0503
1348	10.3505
1352	35.1497
1356	43.1221
1360	19.666
1364	5.31023
1368	54.5765
1372	15.45
1376	2.14803
1380	28.4759
1384	90.0919
1388	62.3982
1392	73.3624
1396	63.7882
1400	62.8941
1404	21.0749
1408	-6.11187
1412	-20.2541
1416	-25.3273
1420	39.3839
1424	4.86461
1428	-5.83536
1432	19.8451
1436	19.8991
1440	18.497
1444	2.53586
1448	5.12322
1452	40.9368
1456	7.23196
1460	-3.17754
1464	8.07925
1468	43.1952
1472	23.5932
1476	67.7381
1480	25.7963
1484	39.6363
1488	7.75064
1492	4.49434
1496	-36.1875
1500	21.5866
1504	72.8989
1508	2.67095
1512	8.73189
1516	-14.2821
1520	9.54152
1524	38.8621
1528	38.7924
1532	-10.3613
1536	39.7189
1540	-26.5097
1544	48.1802
1548	-7.55236
1552	-14.6262
1556	-15.0887
1560	-46.6006
1564	-37.3026
1568	66.0125
1572	417.312
1576	1030.07
1580	962.311
1584	392.556
1588	20.1976
1592	-36.3785
1596	-41.6092
1600	-24.3892
1604	-5.32705
1608	51.4556
1612	6.8138
1616	7.59459
1620	29.0164
1624	-7.83689
1628	26.7971
1632	34.2305
1636	-23.8458
1640	-4.39299
1644	27.428
1648	-2.1008
