Raman shift (cm-1)	intensity
320	-70.0214
324	15.1327
328	112.474
332	200.554
336	300.647
340	247.66
344	208.702
348	83.561
352	117.37
356	80.8932
360	16.6443
364	-33.3167
368	-17.9418
372	4.82958
376	-3.88433
380	-18.7258
384	33.3289
388	-32.273
392	-27.262
396	-7.97912
400	-21.0069
404	40.513
408	223.813
412	393.692
416	417.54
420	378.448
424	325.853
428	251.8
432	129.692
436	-16.7695
440	-1.11046
444	9.52755
448	38.573
452	78.322
456	80.2413
460	-4.5156
464	2.53995
468	-6.30414
472	-7.5767
476	-9.48683
480	-3.61466
484	6.4063
488	7.91975
492	-3.63764
496	-9.22379
500	-28.603
504	1.92896
508	278.72
512	485.944
516	593.118
520	552.691
524	321.923
528	122.813
532	13.1624
536	-42.8596
540	15.7851
544	26.5666
548	86.3953
552	99.1689
556	28.4129
560	-29.327
564	0.711377
568	-20.0935
572	51.995
576	31.4247
580	-9.9826
584	10.7954
588	3.05324
592	36.3512
596	-9.18308
600	13.7646
604	49.8006
608	2.50696
612	-11.2957
616	1.84822
620	8.80815
624	80.6183
628	-14.2697
632	89.3331
636	23.9464
640	4.57075
644	40.7256
648	63.929
652	-6.94508
656	10.4678
660	8.19046
664	-0.851963
668	29.8244
672	-16.1593
676	-5.98868
680	4.58423
684	37.476
688	82.5065
692	16.8166
696	11.0256
700	44.479
704	-7.28146
708	-2.03519
712	85.7736
716	8.48858
720	53.1311
724	28.9804
728	40.9769
732	23.021
736	3.99119
740	-11.7064
744	-9.94358
748	21.2126
752	-6.85621
756	14.9439
760	-15.5482
764	14.539
768	4.79272
772	64.6169
776	13.4132
780	34.1273
784	-15.0821
788	54.9131
792	95.3103
796	61.8649
800	51.7278
804	29.169
808	-0.820305
812	41.7024
816	60.6614
820	8.12357
824	-14.0067
828	29.8039
832	51.2931
836	-1.04686
840	118.411
844	20.8493
848	0.879772
852	-17.0503
856	-4.02775
860	2.96867
864	-1.75783
868	15.3498
872	-4.22496
876	23.7575
880	-1.55279
884	8.08799
888	33.4835
892	41.4444
896	15.521
900	27.3368
904	30.4098
908	-10.0935
912	79.8871
916	75.832
920	-22.4193
924	48.9719
928	57.5983
932	57.5055
936	-3.3967
940	20.0436
944	56.6537
948	-9.22308
952	-7.31042
956	8.79234
960	51.8188
964	-10.0592
968	19.5866
972	-20.2657
976	13.128
980	-9.90741
984	16.8488
988	-16.2595
992	-0.279844
996	30.1121
1000	125.091
1004	37.2606
1008	-22.1242
1012	68.5173
1016	22.6887
1020	78.8061
1024	24.0793
1028	8.16157
1032	-3.18628
1036	2.38384
1040	11.1365
1044	-15.676
1048	-5.41514
1052	-39.6188
1056	-69.7743
1060	-49.2303
1064	1.01652
1068	351.067
1072	1047.66
1076	1464.95
1080	1156.16
1084	393.107
1088	17.4694
1092	-82.2713
1096	-61.1703
1100	-36.1085
1104	15.0589
1108	-17.3468
1112	41.4711
1116	18.1216
1120	-0.860799
1124	-8.77601
1128	10.0071
1132	18.9813
1136	82.5268
1140	108.432
1144	32.4411
1148	3.57728
1152	19.8924
1156	0.250455
1160	7.85892
1164	-12.8163
1168	-15.5676
1172	34.3045
1176	130.444
1180	152.576
1184	49.2879
1188	-9.92835
1192	-3.46497
1196	-0.71213
1200	5.26278
1204	51.0275
1208	60.3418
1212	-2.51749
1216	29.7392
1220	1.65483
1224	-20.0355
1228	27.0059
1232	23.4559
1236	-9.31321
1240	25.3607
1244	70.1058
1248	25.5248
1252	51.8259
1256	27.6096
1260	82.3973
1264	6.53784
1268	44.6619
1272	22.9078
1276	1.66573
1280	6.32224
1284	-9.84902
1288	1.48357
1292	25.8075
1296	-1.74578
1300	-20.2011
1304	12.5565
1308	-9.98718
1312	3.58626
1316	11.0665
1320	3.74666
1324	-14.8388
1328	4.52673
1332	37.6101
1336	16.5925
1340	-19.2187
1344	29.9726
1348	7.46925
1352	37.832
1356	-6.05403
1360	37.6971
1364	15.0484
1368	19.1714
1372	3.99786
1376	51.4697
1380	8.09248
1384	66.2316
1388	94.9782
1392	76.8332
1396	60.5672
1400	12.3165
1404	2.23259
1408	6.99734
1412	-6.98264
1416	-9.79247
1420	-20.4876
1424	32.2875
1428	12.3475
1432	49.3837
1436	-19.1849
1440	32.0676
1444	27.5613
1448	-8.5135
1452	-3.95602
1456	19.6566
1460	7.30544
1464	41.4922
1468	15.503
1472	10.3837
1476	82.4969
1480	42.5225
1484	9.77365
1488	-0.813648
1492	25.5643
1496	-16.069
1500	46.3929
1504	28.9945
1508	-19.3285
1512	30.6144
1516	-6.66999
1520	32.9718
1524	18.4619
1528	-1.85666
1532	4.95374
1536	36.4163
1540	-3.49142
1544	23.4247
1548	-32.2338
1552	40.8843
1556	-47.1523
1560	-29.9257
1564	-45.0593
1568	51.6475
1572	454.101
1576	1028.24
1580	993.821
1584	479.454
1588	-14.7688
1592	-54.9655
1596	-13.7261
1600	-23.825
1604	0.65159
1608	-15.3585
1612	17.4122
1616	30.7808
1620	0.104351
1624	-8.21377
1628	-10.301
1632	25.298
1636	7.1842
1640	-7.59134
1644	-17.3869
1648	29.1268
