Raman shift (cm-1)	intensity
320	-10.5557
324	-12.1424
328	11.6004
332	21.4705
336	-7.12696
340	2.57668
344	7.29408
348	12.3773
352	9.66985
356	25.7457
360	48.0177
364	18.6244
368	4.51402
372	43.941
376	95.9769
380	34.5701
384	12.3261
388	-26.0237
392	-8.99175
396	-13.6142
400	-59.5897
404	-9.47001
408	11.7543
412	143.822
416	391.221
420	530.491
424	636.427
428	524.625
432	286.468
436	44.2642
440	-9.1921
444	22.6026
448	175.291
452	198.187
456	193.871
460	140.823
464	15.1162
468	-34.2887
472	-17.1035
476	-11.0279
480	-23.6597
484	27.9816
488	70.7978
492	34.8081
496	27.4499
500	-41.591
504	-50.9405
508	54.7691
512	69.8694
516	136.415
520	234.667
524	178.454
528	64.0913
532	113.934
536	70.1537
540	80.2603
544	123.794
548	21.8511
552	88.9061
556	26.8331
560	39.0953
564	5.87615
568	-31.6879
572	-11.282
576	-5.6681
580	-14.599
584	-6.17252
588	62.5605
592	0.817038
596	14.3446
600	32.8464
604	5.64418
608	-25.0568
612	24.4566
616	23.6208
620	34.8468
624	11.1846
628	1.27908
632	-5.25085
636	46.7391
640	30.7996
644	7.38066
648	35.2925
652	31.921
656	-12.5491
660	26.9461
664	78.001
668	71.4197
672	-7.44095
676	9.97169
680	-2.59153
684	-4.71194
688	2.65375
692	29.8819
696	6.99933
700	1.92219
704	2.86455
708	57.975
712	78.4351
716	56.5464
720	-12.5695
724	2.98803
728	38.6512
732	65.0795
736	0.331475
740	-29.6604
744	17.3231
748	29.8265
752	-0.660608
756	37.1489
760	-21.9553
764	8.32348
768	36.4413
772	20.5832
776	67.566
780	-3.82158
784	53.3912
788	83.5171
792	59.2103
796	39.9203
800	0.87613
804	17.5097
808	-1.10773
812	30.0116
816	20.1139
820	32.3688
824	-7.6497
828	-7.86505
832	16.2833
836	-6.04076
840	43.2146
844	25.1402
848	42.1076
852	15.765
856	-7.72328
860	-0.652663
864	-12.8047
868	43.5541
872	27.0814
876	-8.42605
880	45.4822
884	12.1331
888	2.17891
892	23.2946
896	37.1528
900	-8.84185
904	7.55473
908	-5.05865
912	4.82646
916	48.2625
920	-3.40413
924	30.8374
928	10.9143
932	50.0779
936	35.4683
940	6.22993
944	0.31541
948	6.88259
952	7.48362
956	15.0413
960	-0.523018
964	-6.94868
968	3.33819
972	35.6197
976	-15.8695
980	4.40511
984	35.1303
988	65.8575
992	23.4137
996	41.4726
1000	5.4842
1004	8.31211
1008	-4.77811
1012	0.106129
1016	15.0368
1020	-4.76378
1024	13.5581
1028	-4.13379
1032	38.4851
1036	-24.9405
1040	63.0029
1044	13.5842
1048	1.11426
1052	-22.1148
1056	-4.62085
1060	-24.8986
1064	3.71432
1068	26.7296
1072	193.595
1076	360.622
1080	289.236
1084	144.015
1088	45.5444
1092	-27.1718
1096	-23.2083
1100	-2.64502
1104	-3.17727
1108	45.6531
1112	60.289
1116	-24.0834
1120	12.5484
1124	3.41504
1128	1.46128
1132	13.728
1136	89.0943
1140	98.5054
1144	90.9363
1148	22.0078
1152	-3.98074
1156	-4.59066
1160	10.4348
1164	21.5395
1168	-3.57444
1172	-2.60649
1176	29.8519
1180	27.8789
1184	-4.18821
1188	44.6539
1192	-0.400178
1196	-9.94181
1200	14.5626
1204	45.938
1208	50.5711
1212	1.17962
1216	23.7688
1220	-3.27236
1224	-2.3808
1228	-16.4698
1232	5.86554
1236	-12.7356
1240	-2.11822
1244	28.7868
1248	118.097
1252	88.2613
1256	144.955
1260	150.523
1264	64.9286
1268	71.7522
1272	59.6586
1276	22.9445
1280	-18.8337
1284	19.2568
1288	25.9682
1292	-4.20797
1296	16.4597
1300	41.6386
1304	-19.0173
1308	-0.359118
1312	21.3958
1316	5.52094
1320	65.7851
1324	38.0941
1328	-16.2829
1332	45.0842
1336	1.85802
1340	-10.7218
1344	58.5557
1348	25.3422
1352	-1.15844
1356	7.44578
1360	24.3258
1364	60.3955
1368	-19.0195
1372	10.8413
1376	8.79581
1380	15.3309
1384	22.3575
1388	-5.23883
1392	12.6755
1396	19.8582
1400	10.3092
1404	15.0704
1408	-10.2045
1412	18.9335
1416	19.9019
1420	-4.27313
1424	48.8389
1428	1.43753
1432	-14.228
1436	24.0089
1440	11.9338
1444	56.3572
1448	2.46449
1452	-4.29452
1456	8.78733
1460	39.3642
1464	0.635848
1468	2.57427
1472	-8.71985
1476	27.1795
1480	38.3184
1484	20.6086
1488	22.5617
1492	-6.90458
1496	-6.51234
1500	32.42
1504	13.0146
1508	-3.2836
1512	6.04984
1516	32.6438
1520	-4.77583
1524	14.6337
1528	12.9312
1532	-1.88975
1536	-15.1934
1540	25.8436
1544	8.18419
1548	5.53133
1552	0.458829
1556	11.6829
1560	-7.26436
1564	-12.0123
1568	6.31626
1572	25.8645
1576	181.772
1580	244.831
1584	217.816
1588	180.183
1592	11.4798
1596	23.5034
1600	-12.1778
1604	-4.6505
1608	30.6428
1612	17.7411
1616	-7.43564
1620	22.406
1624	3.17613
1628	7.81781
1632	16.2447
1636	3.52858
1640	40.4808
1644	3.43247
1648	-15.5592
