Raman shift (cm-1)	intensity
320	8.49375
324	0.940355
328	12.7209
332	-2.56033
336	28.1578
340	-7.2335
344	18.7329
348	14.8591
352	29.6482
356	38.553
360	23.6158
364	-4.70071
368	-0.861166
372	14.2624
376	6.89315
380	19.4546
384	-18.8436
388	18.5388
392	-12.1029
396	-2.31972
400	-8.06653
404	-12.3592
408	71.1424
412	146.596
416	225.197
420	238.887
424	261.17
428	192.452
432	112.185
436	6.12577
440	6.25757
444	3.26044
448	14.8096
452	31.9293
456	49.0732
460	52.3024
464	-8.5155
468	-3.14979
472	-3.22979
476	-4.35257
480	1.55123
484	-3.0395
488	17.0772
492	-9.20776
496	13.9111
500	9.24116
504	-18.6057
508	16.7061
512	92.4698
516	142.534
520	160.103
524	99.2573
528	5.00842
532	80.7048
536	20.1155
540	1.50249
544	29.2036
548	3.71802
552	60.9323
556	46.6098
560	1.76548
564	-17.3154
568	14.9965
572	1.64401
576	1.79914
580	10.7135
584	36.7154
588	20.3161
592	-17.4976
596	20.8552
600	-4.18029
604	21.1528
608	14.8089
612	2.79819
616	-7.50697
620	34.1514
624	22.7741
628	-0.503118
632	49.2032
636	31.316
640	-0.290986
644	31.3744
648	10.2734
652	34.0223
656	23.6887
660	-16.6303
664	7.10861
668	-6.50055
672	37.781
676	11.0456
680	-3.33081
684	5.50927
688	1.29201
692	16.6878
696	-3.27533
700	22.4694
704	4.97939
708	-0.425451
712	32.8458
716	16.8443
720	47.6302
724	-3.79692
728	22.0249
732	17.4168
736	-20.6245
740	-0.554897
744	-14.9692
748	0.523677
752	24.5038
756	-0.385006
760	31.1844
764	-6.32548
768	22.5005
772	21.0687
776	23.5909
780	3.55792
784	13.4366
788	4.30846
792	30.7646
796	-0.933279
800	36.3398
804	10.4073
808	4.78544
812	-3.49804
816	17.1624
820	11.4303
824	-11.1108
828	10.7051
832	15.6215
836	-5.56259
840	21.5799
844	19.8801
848	6.88645
852	12.6592
856	31.4359
860	-12.6394
864	21.8387
868	32.3717
872	-12.2799
876	41.3308
880	24.8672
884	2.31361
888	28.2534
892	14.02
896	-8.82961
900	-0.166005
904	43.5011
908	5.45883
912	5.33921
916	4.05739
920	14.083
924	25.7039
928	-0.349807
932	8.26679
936	-0.978905
940	-1.40277
944	20.058
948	2.72398
952	15.3098
956	16.3935
960	26.8226
964	18.4447
968	-7.62867
972	-5.62004
976	25.356
980	14.332
984	2.7679
988	24.5216
992	8.94527
996	26.3236
1000	7.36723
1004	-6.05371
1008	2.71056
1012	-1.18405
1016	24.732
1020	13.5473
1024	14.8174
1028	0.638608
1032	2.85318
1036	4.29205
1040	10.997
1044	-10.9299
1048	12.8809
1052	1.04302
1056	-9.74798
1060	-19.3916
1064	-4.64966
1068	51.1704
1072	246.182
1076	327.283
1080	301.71
1084	130.26
1088	18.856
1092	-29.3894
1096	20.7856
1100	-18.2375
1104	9.97802
1108	1.13654
1112	3.29432
1116	8.51846
1120	24.0934
1124	1.88664
1128	-0.72123
1132	23.7622
1136	33.7044
1140	13.5293
1144	35.2633
1148	32.9194
1152	-16.5024
1156	37.1973
1160	0.912548
1164	10.0974
1168	-11.5468
1172	36.4862
1176	-5.64299
1180	17.81
1184	44.4227
1188	1.97638
1192	16.5588
1196	-7.53234
1200	19.5286
1204	40.6884
1208	40.3499
1212	22.5419
1216	-0.155586
1220	12.7422
1224	4.64717
1228	-11.9151
1232	-8.2638
1236	12.0798
1240	-8.84579
1244	23.5888
1248	39.8233
1252	26.153
1256	45.6265
1260	16.2564
1264	15.1316
1268	33.1574
1272	29.2614
1276	14.4468
1280	5.98053
1284	10.652
1288	14.9016
1292	1.36044
1296	7.70461
1300	7.58408
1304	1.41221
1308	-4.77123
1312	8.93867
1316	-3.48276
1320	6.12248
1324	18.6466
1328	9.50185
1332	-9.5451
1336	8.03565
1340	3.39848
1344	22.6693
1348	-9.33792
1352	27.0968
1356	33.8175
1360	-7.13586
1364	49.3865
1368	19.4929
1372	-4.92723
1376	48.7458
1380	4.01486
1384	20.7231
1388	5.37077
1392	22.2285
1396	5.8292
1400	-5.52093
1404	-0.801089
1408	34.5218
1412	3.41196
1416	22.9453
1420	6.50816
1424	19.6313
1428	0.377217
1432	6.07154
1436	13.7237
1440	11.4031
1444	-6.7036
1448	1.28362
1452	20.5929
1456	19.3894
1460	7.61818
1464	-2.71605
1468	13.4765
1472	-2.34406
1476	21.4014
1480	29.219
1484	1.47411
1488	31.4536
1492	0.592654
1496	16.6104
1500	-4.34265
1504	30.986
1508	7.24801
1512	6.74524
1516	3.23295
1520	18.9022
1524	-4.86406
1528	17.8775
1532	-9.95913
1536	40.1677
1540	4.05957
1544	-3.81981
1548	20.2027
1552	24.4326
1556	4.76976
1560	-9.20057
1564	12.3311
1568	-2.7392
1572	24.8525
1576	196.929
1580	266.254
1584	307.209
1588	158.065
1592	25.4195
1596	-3.97335
1600	-10.8084
1604	27.127
1608	-6.97363
1612	20.2811
1616	15.7456
1620	15.8482
1624	1.18089
1628	-0.415996
1632	7.5411
1636	38.0115
1640	35.7717
1644	2.35272
1648	-6.17447
