Raman shift (cm-1)	intensity
320	-3.24404
324	-4.01066
328	36.9885
332	-16.7707
336	21.9444
340	5.24981
344	14.8242
348	21.8379
352	5.60057
356	18.4582
360	2.70408
364	54.2913
368	18.4473
372	84.1925
376	51.2304
380	9.38557
384	21.158
388	-22.8979
392	-17.0095
396	-60.811
400	-8.34176
404	-30.5064
408	28.1147
412	138.676
416	418.193
420	585.678
424	570.882
428	487.402
432	177.948
436	-5.70719
440	-24.0204
444	24.9399
448	120.234
452	208.32
456	182.677
460	88.1196
464	2.17061
468	-36.9159
472	-16.4761
476	-49.6132
480	12.4203
484	14.935
488	119.154
492	36.5768
496	2.75139
500	-35.9155
504	-45.6674
508	62.1806
512	38.7953
516	232.203
520	307.638
524	315.406
528	218.028
532	61.3374
536	122.897
540	158.822
544	164.353
548	85.3643
552	143.207
556	95.8733
560	77.4347
564	-4.68641
568	-14.3556
572	10.8031
576	-39.3175
580	-0.990773
584	-9.53972
588	11.9499
592	9.52196
596	-9.00953
600	33.6276
604	40.4669
608	-9.33171
612	-15.6805
616	-14.9104
620	-1.04704
624	8.52394
628	9.05033
632	46.5336
636	17.2915
640	8.57152
644	-10.3981
648	13.3774
652	25.7168
656	19.7736
660	-8.34113
664	2.25478
668	37.3494
672	10.57
676	21.6969
680	-12.5466
684	-13.6113
688	12.3248
692	15.8605
696	68.6628
700	-3.29092
704	5.04398
708	61.6425
712	42.1334
716	23.0481
720	9.04423
724	-5.51308
728	12.799
732	-14.1075
736	-0.464358
740	3.06013
744	-10.6566
748	7.22758
752	-2.76452
756	33.5282
760	-14.4583
764	-0.183248
768	76.6242
772	62.2801
776	56.8764
780	9.16126
784	17.005
788	59.8532
792	53.9898
796	1.34426
800	3.86197
804	9.06929
808	14.3915
812	-1.15303
816	98.9213
820	41.5105
824	5.02484
828	-4.89438
832	-7.9322
836	-16.9741
840	13.7199
844	51.5888
848	20.1595
852	27.4466
856	14.7713
860	-15.2712
864	14.99
868	19.6982
872	38.3631
876	-4.71505
880	26.8275
884	35.2876
888	-4.09751
892	42.482
896	30.7189
900	-22.3258
904	16.9458
908	9.70889
912	48.1895
916	22.8711
920	2.05215
924	24.2034
928	62.6229
932	11.7303
936	15.1417
940	30.1959
944	24.8561
948	15.819
952	10.9479
956	-9.86431
960	36.6714
964	-4.37247
968	25.3411
972	-12.9786
976	-1.70642
980	29.5163
984	26.4178
988	57.8495
992	62.5082
996	-5.60352
1000	21.1296
1004	60.123
1008	-26.0659
1012	60.3187
1016	79.8367
1020	90.1458
1024	2.66139
1028	17.5853
1032	26.3765
1036	-6.61137
1040	20.4199
1044	-25.9437
1048	4.33672
1052	-5.21947
1056	-0.813245
1060	-21.8245
1064	14.2684
1068	51.3033
1072	240.575
1076	358.172
1080	329.334
1084	239.493
1088	35.9562
1092	6.05994
1096	-28.9838
1100	-18.7475
1104	14.9767
1108	47.201
1112	-1.43069
1116	1.12537
1120	0.430168
1124	-9.39015
1128	2.46848
1132	41.3666
1136	33.1449
1140	56.1203
1144	2.3508
1148	45.8308
1152	-0.572161
1156	4.56279
1160	-8.3485
1164	37.2192
1168	-5.65456
1172	5.6106
1176	16.6179
1180	37.689
1184	7.24401
1188	-11.0011
1192	-5.06121
1196	2.53309
1200	56.4258
1204	70.8494
1208	15.0789
1212	41.9923
1216	36.9149
1220	-13.0231
1224	4.67647
1228	2.6234
1232	-16.0235
1236	-10.8692
1240	-7.94013
1244	95.4423
1248	126.898
1252	129.957
1256	163.758
1260	143.118
1264	53.2359
1268	57.5658
1272	50.6192
1276	4.51919
1280	5.46138
1284	0.450567
1288	5.1258
1292	3.69117
1296	-6.10776
1300	-5.85076
1304	19.8701
1308	-19.9818
1312	-3.72654
1316	-7.33805
1320	19.8623
1324	21.0941
1328	-2.94349
1332	-4.81478
1336	5.3673
1340	11.3037
1344	-2.69461
1348	14.4946
1352	10.4863
1356	5.08966
1360	18.9902
1364	4.15721
1368	21.4025
1372	1.80022
1376	2.42427
1380	36.2319
1384	-16.9853
1388	48.5676
1392	1.97929
1396	17.663
1400	29.0827
1404	4.95166
1408	24.1665
1412	17.2489
1416	-11.9956
1420	28.4419
1424	59.5542
1428	-13.0836
1432	7.42758
1436	42.5682
1440	24.7951
1444	-3.35696
1448	33.1943
1452	-6.30738
1456	35.2424
1460	19.8922
1464	-18.7375
1468	51.1805
1472	6.30087
1476	18.101
1480	8.50705
1484	25.2918
1488	13.4323
1492	-4.54035
1496	30.4119
1500	-2.65621
1504	20.4578
1508	24.7624
1512	-3.0475
1516	-0.978431
1520	25.5761
1524	-8.30502
1528	18.0322
1532	-2.10876
1536	-2.10054
1540	17.9246
1544	3.52736
1548	-2.6281
1552	12.433
1556	-4.33656
1560	-5.4847
1564	-19.9279
1568	-5.54806
1572	33.5222
1576	153.448
1580	249.176
1584	259.943
1588	172.515
1592	3.53439
1596	-5.40674
1600	1.73143
1604	32.4231
1608	-27.2506
1612	46.7729
1616	11.5982
1620	-1.98822
1624	18.1575
1628	52.0533
1632	23.5113
1636	-0.592958
1640	12.8742
1644	-1.32525
1648	-5.55247
