Raman shift (cm-1)	intensity
320	10.0152
324	13.678
328	10.0649
332	22.9954
336	30.168
340	28.3933
344	28.4909
348	44.7766
352	10.1599
356	2.28676
360	32.4951
364	50.685
368	32.8711
372	79.432
376	44.9177
380	31.9639
384	-15.8424
388	38.5744
392	-1.01112
396	-10.2576
400	16.6106
404	29.8549
408	65.1417
412	146.856
416	202.391
420	259.217
424	265.856
428	209.758
432	168.48
436	88.5279
440	72.5562
444	17.1107
448	27.7808
452	51.8282
456	1.41576
460	17.2564
464	-10.1537
468	32.9621
472	-10.8244
476	0.391734
480	19.2422
484	20.9686
488	36.2226
492	33.9959
496	6.5549
500	0.487363
504	1.64658
508	40.9291
512	94.3522
516	166.301
520	179.274
524	168.195
528	116.469
532	94.9141
536	68.1945
540	51.8729
544	104.663
548	81.4943
552	78.5459
556	31.03
560	16.5055
564	33.5146
568	-16.7821
572	9.35384
576	-8.62913
580	6.73017
584	24.477
588	14.0531
592	7.76525
596	38.7593
600	37.4767
604	11.934
608	13.0742
612	2.68951
616	-3.64861
620	24.2586
624	22.0555
628	-1.95242
632	22.5013
636	25.0652
640	10.056
644	5.95468
648	44.3304
652	17.8705
656	15.4066
660	30.1619
664	1.77523
668	6.26146
672	22.0636
676	-1.94387
680	-2.35779
684	38.3726
688	22.2105
692	23.8282
696	13.7493
700	16.862
704	21.3368
708	3.00857
712	34.3121
716	9.38805
720	10.438
724	33.9301
728	11.6697
732	1.53665
736	4.52477
740	-3.83835
744	9.56392
748	14.4408
752	0.181063
756	-4.67893
760	12.8146
764	28.8365
768	68.5201
772	35.7183
776	38.9019
780	10.9489
784	51.9155
788	30.7138
792	49.9742
796	11.1699
800	26.0277
804	0.882898
808	11.9262
812	22.1805
816	4.33906
820	12.9179
824	27.5908
828	17.7804
832	-0.243711
836	43.2429
840	-6.07394
844	34.5704
848	24.8208
852	23.1598
856	10.2102
860	-1.02243
864	13.2565
868	26.7836
872	76.8221
876	1.3607
880	-1.20764
884	4.61142
888	11.8515
892	8.89076
896	34.8091
900	-4.39208
904	5.72591
908	44.8311
912	30.2577
916	47.606
920	4.2744
924	39.6215
928	2.84147
932	12.5892
936	46.8757
940	25.6111
944	54.8903
948	4.54736
952	5.22089
956	38.189
960	15.0102
964	0.879811
968	56.4485
972	22.6664
976	18.4148
980	13.3488
984	1.8435
988	36.9231
992	11.5623
996	38.6745
1000	51.4343
1004	24.891
1008	15.3793
1012	1.5624
1016	21.5837
1020	50.2565
1024	19.208
1028	9.87101
1032	48.0817
1036	8.27237
1040	9.42668
1044	4.40108
1048	2.13881
1052	1.73616
1056	41.9584
1060	-18.5879
1064	37.8583
1068	74.4821
1072	198.177
1076	273.447
1080	240.05
1084	215.907
1088	92.1923
1092	41.6882
1096	11.6683
1100	-14.8557
1104	31.304
1108	46.215
1112	-10.7408
1116	12.1965
1120	50.8927
1124	2.43662
1128	19.2893
1132	27.2982
1136	42.4078
1140	17.738
1144	37.4697
1148	29.2029
1152	-7.7972
1156	25.9054
1160	7.39023
1164	37.236
1168	30.5082
1172	41.8569
1176	-5.36953
1180	18.6839
1184	24.6471
1188	25.774
1192	-12.2884
1196	46.1253
1200	77.886
1204	44.8716
1208	58.4435
1212	95.6183
1216	5.31485
1220	38.1394
1224	0.512414
1228	-7.73722
1232	-3.91893
1236	13.9381
1240	23.962
1244	13.3937
1248	47.0032
1252	112.051
1256	68.0976
1260	100.593
1264	108.533
1268	82.8695
1272	51.6085
1276	36.6265
1280	57.0375
1284	-9.51052
1288	29.2262
1292	21.7562
1296	19.8195
1300	0.313767
1304	18.7268
1308	-6.41101
1312	32.006
1316	8.08763
1320	21.822
1324	30.4344
1328	15.3119
1332	3.83284
1336	13.5053
1340	14.5811
1344	24.937
1348	18.6614
1352	-1.77166
1356	31.5663
1360	17.5555
1364	1.8916
1368	23.9171
1372	8.00284
1376	22.0998
1380	-3.57461
1384	35.2392
1388	34.9044
1392	28.3392
1396	60.5203
1400	35.4799
1404	59.1373
1408	41.7894
1412	-7.935
1416	52.4122
1420	30.8543
1424	38.4508
1428	-4.78967
1432	38.7077
1436	42.0181
1440	20.2563
1444	1.7526
1448	8.13691
1452	47.4153
1456	17.5773
1460	44.7061
1464	-9.3114
1468	9.8939
1472	12.2862
1476	39.3613
1480	36.8841
1484	0.692571
1488	27.9787
1492	28.6479
1496	34.7755
1500	2.40289
1504	44.1318
1508	38.0016
1512	37.8133
1516	29.9323
1520	-12.408
1524	19.0489
1528	27.0624
1532	25.9079
1536	47.1253
1540	-2.39467
1544	-5.69787
1548	33.0173
1552	46.7329
1556	10.6444
1560	16.6106
1564	-11.6959
1568	16.9089
1572	70.0008
1576	131.431
1580	181.98
1584	196.785
1588	115.545
1592	72.1222
1596	29.9656
1600	36.1708
1604	-20.0971
1608	34.5683
1612	8.00197
1616	20.3158
1620	38.4637
1624	16.2336
1628	27.4487
1632	47.9574
1636	13.7132
1640	-0.744518
1644	27.0281
1648	35.5615
