Raman shift (cm-1)	intensity
320	11.3474
324	26.929
328	-0.465824
332	10.2656
336	38.8199
340	5.42493
344	17.9224
348	15.0024
352	39.4045
356	35.5656
360	30.6925
364	11.8157
368	40.3194
372	39.4048
376	13.4065
380	-9.96869
384	19.5752
388	12.875
392	-10.4543
396	20.3175
400	-5.08608
404	25.1447
408	80.4181
412	130.995
416	174.563
420	226.47
424	261.022
428	229.494
432	162.584
436	74.498
440	10.9804
444	7.24914
448	51.6168
452	62.3767
456	28.2522
460	19.3296
464	7.96449
468	-5.41551
472	-5.78167
476	-7.68486
480	45.0086
484	15.1541
488	23.969
492	18.2516
496	-16.2239
500	38.6808
504	23.7944
508	24.9364
512	80.4715
516	140.891
520	154.407
524	191.289
528	134.135
532	101.557
536	107.665
540	38.4519
544	74.8949
548	75.4398
552	83.8914
556	9.0959
560	12.7453
564	17.3829
568	0.59773
572	-5.60157
576	2.30237
580	6.24846
584	-5.34651
588	26.2516
592	7.50129
596	41.111
600	1.23977
604	36.8534
608	10.6083
612	13.8171
616	-7.57323
620	22.1113
624	39.0184
628	-1.72416
632	34.8395
636	68.3317
640	17.1201
644	26.6121
648	39.2333
652	27.0182
656	6.22817
660	6.91707
664	18.5043
668	8.23042
672	2.43984
676	18.7744
680	-0.866853
684	2.32054
688	-0.000271411
692	0.98146
696	44.1838
700	54.6293
704	2.2882
708	25.3192
712	8.45043
716	49.1058
720	39.8554
724	55.5484
728	4.58389
732	26.1958
736	13.31
740	4.78579
744	-3.92227
748	36.8543
752	15.3014
756	-2.21127
760	40.0432
764	12.7565
768	17.8784
772	71.5888
776	28.7599
780	9.28084
784	64.1992
788	53.5434
792	32.3393
796	-0.362763
800	47.0098
804	12.7503
808	23.3067
812	2.72236
816	13.8858
820	61.5085
824	4.85925
828	18.3626
832	16.0544
836	46.057
840	19.6428
844	-5.50932
848	22.0174
852	47.1363
856	2.92034
860	24.9058
864	48.5297
868	-5.77651
872	73.7627
876	21.3496
880	10.7182
884	13.9363
888	38.9692
892	43.5391
896	32.5799
900	-1.72267
904	12.1579
908	56.957
912	3.51228
916	41.8187
920	29.1944
924	0.283172
928	15.2825
932	18.0288
936	24.1135
940	24.6187
944	39.3795
948	-3.14899
952	17.1896
956	4.65212
960	3.79676
964	-2.91557
968	16.094
972	33.7134
976	10.5592
980	22.8853
984	44.2562
988	3.38634
992	-1.0695
996	54.3807
1000	7.29631
1004	30.9192
1008	6.56592
1012	6.33118
1016	1.86434
1020	2.70456
1024	7.27286
1028	10.7975
1032	15.662
1036	31.5678
1040	16.5343
1044	21.2817
1048	-0.406572
1052	13.2662
1056	17.7434
1060	-2.73509
1064	9.79189
1068	52.8151
1072	99.8422
1076	195.108
1080	206.688
1084	177.087
1088	90.4519
1092	18.9109
1096	5.40967
1100	-8.01309
1104	24.2791
1108	9.57002
1112	28.0651
1116	-10.8243
1120	19.0819
1124	18.6078
1128	30.334
1132	1.3937
1136	38.369
1140	39.4846
1144	13.5334
1148	33.028
1152	32.0752
1156	25.5552
1160	42.7219
1164	33.295
1168	-2.28802
1172	26.0604
1176	21.7585
1180	36.7891
1184	8.41788
1188	25.9861
1192	8.79545
1196	48.8679
1200	55.5392
1204	40.2671
1208	52.2193
1212	64.2421
1216	32.3298
1220	5.76204
1224	20.0841
1228	-23.6015
1232	24.7081
1236	32.1381
1240	10.7032
1244	71.2628
1248	77.6959
1252	122.299
1256	128.992
1260	143.213
1264	97.848
1268	96.2776
1272	98.4528
1276	51.9594
1280	31.8453
1284	13.4011
1288	7.36143
1292	0.661843
1296	-11.2506
1300	34.4038
1304	12.3016
1308	7.0689
1312	18.1845
1316	13.5393
1320	-14.2571
1324	44.8337
1328	46.7011
1332	18.7563
1336	18.1927
1340	4.07263
1344	1.75485
1348	26.7262
1352	14.9377
1356	19.3872
1360	35.4952
1364	9.98795
1368	12.0416
1372	53.6421
1376	33.4699
1380	28.3242
1384	2.69313
1388	7.45015
1392	7.79824
1396	30.8891
1400	-1.53234
1404	46.3265
1408	31.2138
1412	10.6786
1416	2.48697
1420	27.0069
1424	10.2388
1428	45.8733
1432	11.2978
1436	30.3595
1440	21.9477
1444	60.2618
1448	-8.78945
1452	12.7876
1456	34.7302
1460	53.5091
1464	-1.42246
1468	9.15762
1472	12.9426
1476	21.9
1480	1.68695
1484	24.3175
1488	1.71084
1492	55.5226
1496	3.29689
1500	33.1364
1504	-11.8922
1508	57.5435
1512	1.27687
1516	18.0148
1520	27.5627
1524	18.6107
1528	31.1292
1532	0.520747
1536	10.9002
1540	21.4369
1544	10.2901
1548	42.2695
1552	22.0542
1556	12.4756
1560	35.3064
1564	-5.51613
1568	-5.67311
1572	55.8339
1576	87.0173
1580	173.887
1584	190.116
1588	133.969
1592	55.2858
1596	22.9339
1600	-15.7671
1604	16.9398
1608	18.1975
1612	47.8002
1616	39.847
1620	20.9805
1624	43.3312
1628	24.543
1632	28.1814
1636	58.2159
1640	19.9763
1644	7.11989
1648	-1.32346
