x	intensity
320	8.9257
324	0.815987
328	-7.4135
332	2.77975
336	19.4997
340	14.6771
344	4.4266
348	32.8211
352	32.2728
356	4.84524
360	55.3433
364	8.00127
368	1.80103
372	19.1136
376	26.3105
380	23.1219
384	-14.0682
388	3.68038
392	-14.9605
396	-6.89126
400	-8.94923
404	-13.5623
408	14.298
412	39.375
416	106.162
420	172.961
424	201.271
428	201.84
432	64.7762
436	24.6514
440	-18.6601
444	-3.631
448	15.6176
452	48.9799
456	31.1835
460	4.01507
464	7.15067
468	-10.758
472	-6.65101
476	-10.8215
480	-4.79215
484	26.442
488	27.1651
492	1.41248
496	18.54
500	-20.7166
504	-10.045
508	16.9544
512	50.7029
516	161.773
520	223.341
524	212.783
528	162.078
532	126.036
536	43.7669
540	12.3141
544	7.79363
548	38.0593
552	94.883
556	43.2841
560	-30.1824
564	16.2602
568	3.73371
572	7.54614
576	-4.76412
580	-2.39063
584	5.34713
588	16.5486
592	-7.36818
596	25.262
600	19.4586
604	11.436
608	9.48316
612	-2.13145
616	7.01036
620	7.60594
624	31.0876
628	3.19153
632	23.2367
636	36.9014
640	24.9923
644	33.4421
648	-13.5318
652	11.8562
656	31.7493
660	3.16661
664	25.8954
668	22.0615
672	17.4769
676	-10.9667
680	65.2301
684	8.66
688	-7.46201
692	0.364304
696	32.0898
700	-2.12152
704	0.52819
708	11.6935
712	48.8862
716	32.4228
720	10.5916
724	44.2069
728	12.2695
732	-10.5723
736	28.0345
740	-13.7384
744	25.8959
748	17.4456
752	-7.82007
756	13.0373
760	0.608162
764	9.20077
768	5.60872
772	29.0023
776	7.71448
780	21.1356
784	-1.84431
788	16.6791
792	40.4423
796	10.2816
800	1.42854
804	8.13783
808	46.7422
812	-4.35699
816	32.7499
820	12.3787
824	-20.0885
828	24.4862
832	-4.49413
836	11.9174
840	21.5609
844	10.3974
848	2.23873
852	5.97388
856	8.23855
860	30.694
864	-1.0446
868	-4.78293
872	-7.53711
876	4.09125
880	25.5945
884	19.2887
888	-10.4197
892	41.2273
896	12.8762
900	-3.59063
904	36.4969
908	-4.69463
912	1.6255
916	48.6513
920	-4.28294
924	36.8758
928	-9.09276
932	11.0536
936	40.2084
940	22.8339
944	-9.91297
948	26.5621
952	28.6855
956	1.64297
960	45.0052
964	3.2807
968	-2.93601
972	7.61525
976	-14.0966
980	24.2209
984	43.8012
988	-4.71048
992	38.2419
996	37.4435
1000	14.1303
1004	-3.96247
1008	1.35745
1012	23.2113
1016	48.0219
1020	12.7491
1024	19.5821
1028	1.60118
1032	-7.38008
1036	-7.10467
1040	16.1386
1044	-5.92287
1048	-9.36601
1052	-14.2132
1056	0.306014
1060	-26.6116
1064	-7.82155
1068	80.3584
1072	343.172
1076	545.397
1080	528.243
1084	324.646
1088	54.2662
1092	-23.217
1096	-30.1248
1100	-22.6461
1104	9.75313
1108	-5.72465
1112	17.4457
1116	3.50825
1120	-13.3168
1124	-2.18756
1128	-0.935026
1132	3.10983
1136	16.7077
1140	32.3869
1144	24.0385
1148	36.2029
1152	0.273642
1156	-12.8526
1160	-3.96348
1164	0.0644409
1168	14.9433
1172	-6.93938
1176	4.0509
1180	45.7972
1184	4.01604
1188	-2.89696
1192	3.2725
1196	5.26764
1200	38.2052
1204	61.9241
1208	26.9912
1212	8.14186
1216	-11.1744
1220	21.4316
1224	19.7104
1228	-21.5881
1232	7.82579
1236	0.237826
1240	3.92289
1244	45.3396
1248	36.4551
1252	47.1317
1256	38.7753
1260	46.0129
1264	35.116
1268	46.1471
1272	56.1439
1276	62.3559
1280	16.0424
1284	26.5121
1288	21.7665
1292	-16.5483
1296	3.55159
1300	-1.43192
1304	26.3108
1308	-6.96608
1312	-5.87927
1316	12.7763
1320	4.02524
1324	-2.44644
1328	4.14454
1332	29.8288
1336	-0.271273
1340	-1.99765
1344	4.02097
1348	2.70579
1352	12.5915
1356	-7.39585
1360	25.5283
1364	25.9718
1368	-2.13227
1372	25.1512
1376	4.74106
1380	54.3873
1384	16.4924
1388	5.08787
1392	-5.90696
1396	0.876989
1400	-0.414996
1404	10.1169
1408	5.35292
1412	9.48143
1416	20.8682
1420	-2.52643
1424	25.7045
1428	16.2759
1432	9.86715
1436	-7.89354
1440	14.8128
1444	-2.33934
1448	41.6292
1452	-9.33789
1456	5.19645
1460	5.32031
1464	7.36763
1468	12.8394
1472	-4.81802
1476	33.3366
1480	10.3412
1484	18.0666
1488	3.40168
1492	-5.73629
1496	0.212595
1500	32.8237
1504	-2.81227
1508	9.51002
1512	-3.48008
1516	8.65996
1520	2.97116
1524	22.5862
1528	7.34829
1532	-14.1159
1536	31.5575
1540	-2.85106
1544	17.1319
1548	0.250508
1552	-6.14073
1556	-4.71654
1560	-18.3837
1564	-15.7779
1568	8.34922
1572	50.9304
1576	288.018
1580	445.812
1584	438.597
1588	220.962
1592	13.1973
1596	-14.8688
1600	-33.6463
1604	5.62153
1608	-2.31641
1612	19.1887
1616	10.5633
1620	-5.8105
1624	22.8332
1628	17.5838
1632	17.1819
1636	17.5951
1640	5.1442
1644	-0.706119
1648	-12.9289
