Raman shift (cm-1)	intensity
320	7.63608
324	14.8666
328	13.0712
332	-5.53705
336	51.3315
340	39.6561
344	78.2827
348	-4.59844
352	41.0823
356	-7.60142
360	19.1195
364	1.4412
368	15.0982
372	4.54732
376	-4.40386
380	-0.389793
384	25.9765
388	40.3042
392	-32.5828
396	-7.96437
400	1.93899
404	11.817
408	109.489
412	180.918
416	263.122
420	246.368
424	259.049
428	165.285
432	59.7151
436	10.056
440	11.0783
444	-14.5633
448	21.3696
452	21.6093
456	7.74478
460	21.3844
464	6.62268
468	-2.75779
472	13.7976
476	-22.1303
480	1.07577
484	-6.06674
488	6.09814
492	42.58
496	3.72235
500	-12.1436
504	-9.01699
508	35.5827
512	82.1665
516	156.706
520	206.648
524	138.125
528	97.3195
532	11.2395
536	-1.76463
540	36.7163
544	2.71282
548	14.5246
552	26.8598
556	41.5654
560	-12.1614
564	-15.0528
568	-10.9304
572	-2.77341
576	0.327379
580	33.9086
584	8.40584
588	11.356
592	-9.0775
596	4.44883
600	6.79255
604	5.44828
608	-1.07009
612	19.4995
616	-11.0424
620	10.1011
624	18.0164
628	7.93194
632	14.15
636	21.1252
640	-10.7616
644	2.45351
648	32.6928
652	-1.25409
656	34.9358
660	12.7779
664	24.0044
668	0.585506
672	-16.8836
676	22.4365
680	-17.3327
684	13.5603
688	45.8515
692	25.5287
696	59.0907
700	36.1847
704	-2.78256
708	12.1049
712	19.1182
716	36.8635
720	38.4577
724	-8.84177
728	23.5248
732	-7.31603
736	-5.8024
740	-1.70941
744	1.56874
748	1.67017
752	-1.42911
756	15.1539
760	9.93526
764	21.379
768	13.5108
772	56.1055
776	31.1687
780	9.10447
784	15.5789
788	-0.568816
792	26.2956
796	0.0860913
800	43.8726
804	37.6079
808	4.71999
812	26.1206
816	21.4732
820	5.5221
824	-7.87409
828	14.9186
832	1.10933
836	82.0104
840	52.9627
844	-10.4758
848	50.9451
852	14.032
856	-4.3908
860	32.9632
864	-6.87651
868	34.9075
872	46.7712
876	-1.31789
880	-5.5742
884	42.5107
888	35.7084
892	48.1576
896	5.5291
900	-17.916
904	40.0401
908	13.2082
912	30.209
916	18.6356
920	21.2055
924	-5.22622
928	56.1076
932	49.872
936	0.808749
940	19.6923
944	14.9598
948	15.1007
952	14.7953
956	5.74698
960	3.99063
964	22.3771
968	-19.7656
972	17.0687
976	7.80661
980	2.87266
984	-8.03708
988	-4.96386
992	-1.14782
996	81.6888
1000	241.836
1004	126.194
1008	-32.0617
1012	6.65755
1016	4.16032
1020	117.848
1024	170.458
1028	6.29718
1032	-12.8735
1036	14.9738
1040	-11.4734
1044	-3.50325
1048	-4.81974
1052	-13.4933
1056	-35.0107
1060	-8.84377
1064	-3.99098
1068	184.783
1072	580.742
1076	757.509
1080	546.824
1084	178.94
1088	-0.73527
1092	-41.666
1096	-29.4737
1100	-3.68363
1104	14.8525
1108	-16.6164
1112	64.2177
1116	-3.40825
1120	-8.72095
1124	15.7474
1128	-2.08242
1132	10.6189
1136	29.9402
1140	29.7064
1144	3.07466
1148	13.6855
1152	22.2961
1156	-1.03461
1160	29.2768
1164	23.1923
1168	-6.5478
1172	8.95183
1176	11.3859
1180	61.3936
1184	36.6645
1188	-11.0932
1192	26.7923
1196	1.54403
1200	-0.532172
1204	44.0158
1208	78.6656
1212	42.6761
1216	-13.7963
1220	51.8044
1224	26.5311
1228	-8.95704
1232	-5.57892
1236	13.4993
1240	-11.1914
1244	29.2873
1248	19.1795
1252	43.2825
1256	76.3555
1260	47.9123
1264	20.3199
1268	43.8996
1272	31.8801
1276	10.9012
1280	21.7711
1284	-10.2037
1288	17.621
1292	11.009
1296	48.5019
1300	-5.5931
1304	30.3798
1308	-6.17543
1312	-3.90488
1316	30.2459
1320	-0.836142
1324	27.3124
1328	2.43433
1332	50.5839
1336	9.68386
1340	-10.2228
1344	0.439971
1348	2.9879
1352	34.161
1356	-7.02146
1360	0.264052
1364	38.7249
1368	29.5075
1372	6.35251
1376	10.6673
1380	12.4406
1384	39.5277
1388	-1.73698
1392	-8.46218
1396	-0.0835175
1400	47.8377
1404	0.666597
1408	14.366
1412	3.55261
1416	-0.745926
1420	39.559
1424	-5.63518
1428	35.9882
1432	-5.63029
1436	6.94503
1440	27.6576
1444	2.57679
1448	-1.17996
1452	-9.11737
1456	16.7062
1460	17.1378
1464	1.64145
1468	2.76718
1472	24.2084
1476	8.72435
1480	29.4276
1484	1.56498
1488	8.36122
1492	31.4304
1496	2.93797
1500	5.40229
1504	2.90366
1508	42.6414
1512	0.978695
1516	-1.10552
1520	25.7604
1524	23.4801
1528	-7.52741
1532	0.643328
1536	-4.68243
1540	2.70353
1544	10.2155
1548	-5.27582
1552	24.4674
1556	6.83412
1560	-32.1942
1564	-4.28451
1568	45.842
1572	73.8208
1576	203.494
1580	273.253
1584	276.127
1588	79.078
1592	5.78863
1596	-0.249285
1600	-12.4961
1604	-10.221
1608	1.6304
1612	31.2232
1616	29.2884
1620	6.73688
1624	18.5226
1628	37.4908
1632	-12.9704
1636	13.8172
1640	3.60024
1644	2.63112
1648	21.8565
