Raman shift (cm-1)	intensity
320	-11.993
324	15.7101
328	57.0876
332	23.0565
336	50.978
340	64.8167
344	6.16715
348	10.617
352	21.7278
356	29.7447
360	16.6244
364	-17.578
368	25.5523
372	-4.77923
376	0.29524
380	-12.3014
384	-8.45338
388	47.8038
392	-19.3531
396	-14.0301
400	8.10833
404	7.52182
408	10.3128
412	3.32917
416	60.8
420	131.232
424	150.542
428	72.522
432	22.6776
436	-6.82419
440	15.5204
444	-10.7091
448	56.9606
452	25.7126
456	53.2237
460	-16.8782
464	-7.0149
468	15.6548
472	17.7267
476	0.954304
480	-4.22367
484	17.3283
488	30.7671
492	2.48982
496	-6.39723
500	-29.4227
504	12.6547
508	26.9431
512	109.861
516	221.986
520	205.267
524	179.57
528	82.7934
532	17.4099
536	-8.22241
540	12.1079
544	-4.33459
548	15.5509
552	9.82673
556	1.29989
560	10.252
564	-7.25547
568	-8.03192
572	2.17589
576	38.6801
580	31.698
584	-3.46342
588	-3.3302
592	-1.22158
596	50.021
600	23.5258
604	4.38293
608	31.2198
612	-3.86346
616	-6.41249
620	13.4205
624	54.648
628	39.8352
632	8.67184
636	-1.36026
640	0.637628
644	-1.60857
648	-0.651561
652	1.974
656	32.6244
660	1.30107
664	11.268
668	29.1075
672	5.47133
676	7.99535
680	5.97269
684	14.0715
688	23.6637
692	38.0285
696	14.3619
700	34.0884
704	11.5438
708	4.92971
712	25.7138
716	13.9519
720	1.49521
724	35.5915
728	14.2701
732	23.9763
736	6.43951
740	-34.9646
744	31.0575
748	37.9954
752	-5.55947
756	32.739
760	-5.55504
764	-0.989758
768	20.5383
772	42.2163
776	5.8149
780	-0.334068
784	38.4406
788	26.7349
792	22.2073
796	34.6124
800	32.1909
804	19.7783
808	18.1619
812	0.141581
816	28.4366
820	17.1339
824	7.25032
828	22.3276
832	-15.4858
836	20.9641
840	20.9248
844	-6.88054
848	8.36524
852	26.1065
856	28.064
860	7.69216
864	-17.8046
868	30.9649
872	10.303
876	-4.37397
880	16.0478
884	20.2295
888	17.8557
892	4.05967
896	29.3425
900	3.80489
904	23.4539
908	-8.5281
912	4.73893
916	23.8106
920	5.14104
924	14.9326
928	23.369
932	6.04009
936	16.625
940	20.7845
944	35.7927
948	14.5289
952	-2.2436
956	-3.7353
960	12.3921
964	7.67592
968	10.7747
972	-18.0128
976	18.9105
980	-3.74823
984	10.8715
988	17.0663
992	8.48832
996	36.0946
1000	-2.4307
1004	32.2042
1008	7.37728
1012	23.7963
1016	52.6424
1020	22.9591
1024	-3.88376
1028	2.33153
1032	22.3039
1036	-9.26147
1040	27.5144
1044	-0.708353
1048	11.3505
1052	-18.8903
1056	5.73774
1060	-32.6139
1064	-30.1099
1068	26.439
1072	274.051
1076	628.075
1080	708.818
1084	351.739
1088	66.1717
1092	-35.1701
1096	-38.8571
1100	-9.15118
1104	21.3891
1108	-26.7555
1112	-5.10701
1116	53.9059
1120	9.79503
1124	-9.74455
1128	0.505293
1132	34.6482
1136	30.7458
1140	11.1536
1144	38.9567
1148	-8.93809
1152	3.0507
1156	-0.402717
1160	15.1703
1164	-0.49605
1168	-8.2452
1172	4.33226
1176	-0.746808
1180	83.2487
1184	51.7354
1188	-3.0854
1192	-2.04226
1196	12.588
1200	2.16455
1204	42.3292
1208	48.376
1212	30.744
1216	-3.25183
1220	16.2466
1224	22.5246
1228	-5.96401
1232	9.33177
1236	12.4183
1240	4.69641
1244	15.2969
1248	52.4999
1252	19.8914
1256	61.7477
1260	49.8936
1264	41.1874
1268	14.9656
1272	13.6378
1276	-5.64881
1280	30.3383
1284	2.74
1288	12.6179
1292	16.1889
1296	12.1505
1300	5.72915
1304	5.17827
1308	21.6437
1312	-14.8158
1316	24.8979
1320	12.5875
1324	-1.44898
1328	19.7492
1332	-8.94915
1336	21.9595
1340	11.1758
1344	38.9684
1348	21.7082
1352	-9.62771
1356	51.9058
1360	15.1161
1364	29.4509
1368	-8.48841
1372	45.1553
1376	14.5278
1380	-12.8242
1384	13.003
1388	6.24244
1392	11.8275
1396	0.752877
1400	1.37876
1404	11.6858
1408	31.1729
1412	13.5639
1416	-1.99985
1420	56.1633
1424	-2.90038
1428	31.1412
1432	1.39395
1436	6.45447
1440	1.02591
1444	-8.75935
1448	29.9495
1452	31.422
1456	47.1279
1460	-8.02059
1464	1.53756
1468	3.28871
1472	15.9732
1476	22.1144
1480	26.793
1484	-4.44876
1488	0.648235
1492	12.9223
1496	-3.9856
1500	8.37471
1504	-0.591506
1508	7.46481
1512	12.8917
1516	1.98587
1520	-7.44096
1524	19.2279
1528	5.06596
1532	19.3201
1536	10.8586
1540	1.3338
1544	-7.05706
1548	28.188
1552	30.0014
1556	14.7247
1560	-39.4844
1564	-9.47565
1568	-20.5194
1572	30.2899
1576	246.707
1580	530.393
1584	572.997
1588	278.732
1592	15.9329
1596	-33.8941
1600	-16.8524
1604	-0.374633
1608	-17.2555
1612	30.1042
1616	21.9295
1620	1.79912
1624	10.8542
1628	20.2172
1632	22.6057
1636	18.3208
1640	-1.22851
1644	10.2207
1648	-0.0284965
