Raman shift (cm-1)	intensity
320	-33.7765
324	36.08
328	14.6789
332	47.0052
336	62.3973
340	16.274
344	62.951
348	31.6087
352	-8.20417
356	41.2215
360	26.9545
364	33.3398
368	-26.978
372	11.8583
376	62.0375
380	25.2835
384	-10.499
388	30.6829
392	-36.952
396	6.84118
400	5.13051
404	2.49393
408	46.7538
412	81.3563
416	141.787
420	195.94
424	231.09
428	180.031
432	122.277
436	62.746
440	16.1583
444	-2.38599
448	10.417
452	13.6681
456	12.7218
460	25.2415
464	-26.2258
468	1.10656
472	6.45761
476	17.6083
480	-20.7558
484	61.1824
488	46.4488
492	41.0014
496	-22.065
500	9.7557
504	-11.4716
508	37.7511
512	129.119
516	235.422
520	229.906
524	172.217
528	121.453
532	31.0601
536	0.889005
540	-5.49722
544	24.658
548	43.7496
552	54.9379
556	1.21491
560	-3.34215
564	16.7163
568	-21.0345
572	16.462
576	15.1746
580	5.12695
584	16.3274
588	23.4281
592	-10.7374
596	15.6902
600	25.5188
604	0.988928
608	0.982418
612	9.36359
616	-7.09616
620	4.50024
624	12.2074
628	6.48559
632	44.7038
636	-5.84483
640	14.3686
644	35.6194
648	11.1344
652	27.9769
656	1.91289
660	22.3437
664	-2.21095
668	25.0649
672	9.09469
676	14.5214
680	-1.52847
684	2.23355
688	13.3769
692	1.84548
696	31.4249
700	-6.37698
704	14.2944
708	21.7291
712	49.8059
716	10.9756
720	12.7141
724	21.8467
728	-20.9671
732	7.65678
736	10.1382
740	-8.28262
744	12.7035
748	1.3462
752	-3.42321
756	19.9399
760	-6.60406
764	-2.10694
768	-2.21717
772	21.8738
776	-5.8468
780	23.5883
784	10.1899
788	48.7059
792	16.3566
796	2.55451
800	2.3823
804	40.0482
808	20.2169
812	62.4305
816	6.385
820	32.1748
824	-18.7689
828	14.5033
832	-3.55286
836	4.96551
840	24.641
844	9.21394
848	-10.3441
852	21.7455
856	17.2185
860	20.8571
864	-7.22124
868	-2.35272
872	16.7921
876	-9.42775
880	29.788
884	46.2127
888	7.42959
892	5.48998
896	29.0852
900	-3.54986
904	35.9481
908	6.76581
912	9.96541
916	42.2661
920	-1.16229
924	54.4401
928	8.84576
932	20.5163
936	9.50995
940	16.2519
944	19.4476
948	2.88847
952	19.0738
956	-1.15982
960	39.9263
964	-13.7804
968	16.2997
972	-3.04742
976	-3.00299
980	-12.7368
984	2.8064
988	29.9941
992	12.026
996	-0.49316
1000	5.11601
1004	20.7066
1008	22.6604
1012	7.69692
1016	51.0201
1020	-8.61126
1024	10.0995
1028	15.5786
1032	14.7072
1036	-5.70462
1040	11.3927
1044	3.2948
1048	1.804
1052	-21.1467
1056	-7.99853
1060	-43.7146
1064	-15.8135
1068	42.0011
1072	360.832
1076	700.763
1080	681.815
1084	398.882
1088	91.1404
1092	-23.5508
1096	-42.9895
1100	-27.9069
1104	14.8279
1108	-18.4113
1112	24.6737
1116	20.412
1120	2.55721
1124	10.6516
1128	13.4822
1132	14.4639
1136	-2.13701
1140	46.6491
1144	13.618
1148	11.2545
1152	-2.55888
1156	4.87241
1160	-1.35879
1164	-1.65205
1168	-0.980615
1172	26.2426
1176	-0.851527
1180	58.5877
1184	42.073
1188	8.66151
1192	23.2985
1196	-15.4192
1200	39.9732
1204	36.261
1208	46.7482
1212	3.30222
1216	13.0742
1220	18.6731
1224	6.52906
1228	-15.2203
1232	3.24676
1236	-5.63208
1240	-2.35419
1244	5.05617
1248	40.7055
1252	9.08129
1256	10.5066
1260	36.9697
1264	39.5571
1268	43.4914
1272	35.2379
1276	-0.282801
1280	36.9683
1284	-17.0024
1288	33.1889
1292	20.5201
1296	9.69674
1300	-9.18065
1304	-2.49172
1308	8.45845
1312	1.04466
1316	7.2256
1320	-8.14846
1324	-0.428149
1328	3.25698
1332	37.451
1336	8.30807
1340	-13.9616
1344	3.29915
1348	38.1789
1352	31.9675
1356	-6.02666
1360	15.5599
1364	24.4564
1368	17.1141
1372	-7.09777
1376	25.5164
1380	11.2295
1384	3.10734
1388	47.5784
1392	-5.82383
1396	18.141
1400	14.1202
1404	21.692
1408	4.00695
1412	29.6958
1416	-2.6541
1420	30.6597
1424	11.6638
1428	5.40297
1432	18.8426
1436	-4.06812
1440	2.50537
1444	-6.59105
1448	42.375
1452	6.22817
1456	1.10899
1460	14.2426
1464	15.1292
1468	9.41487
1472	2.86662
1476	9.3176
1480	29.2865
1484	35.775
1488	-2.0345
1492	13.1471
1496	-5.78214
1500	13.334
1504	2.41682
1508	9.34839
1512	41.3515
1516	12.0019
1520	-11.1628
1524	18.9394
1528	20.5899
1532	0.138608
1536	-10.4134
1540	29.0988
1544	-8.04404
1548	27.2941
1552	5.46212
1556	-17.96
1560	-7.16039
1564	-19.4682
1568	-16.2916
1572	3.2435
1576	148.497
1580	461.399
1584	536.463
1588	282.85
1592	26.0899
1596	-40.0581
1600	-5.22087
1604	-6.64036
1608	23.2029
1612	2.14952
1616	-7.07937
1620	19.5532
1624	4.98898
1628	8.46862
1632	13.819
1636	28.7855
1640	-12.0132
1644	2.42748
1648	11.9819
