Raman shift (cm-1)	intensity
320	2.94373
324	-10.9277
328	21.85
332	23.7655
336	40.7281
340	61.1323
344	53.0696
348	44.2018
352	15.626
356	53.0791
360	44.9979
364	17.694
368	2.55817
372	87.2559
376	2.85037
380	-43.4639
384	50.664
388	12.7314
392	-12.5834
396	12.4952
400	-17.1778
404	18.8523
408	73.9374
412	124.282
416	144.21
420	141.833
424	118.251
428	30.573
432	27.958
436	-13.3009
440	11.0844
444	-4.68248
448	11.9931
452	17.5441
456	29.9323
460	26.4324
464	-9.33538
468	-4.58901
472	24.4937
476	-14.0135
480	4.52698
484	8.89412
488	-8.84069
492	-12.4204
496	14.6331
500	-12.1066
504	-4.93967
508	94.5345
512	194.972
516	306.869
520	290.324
524	236.045
528	103.089
532	-1.56642
536	-6.76536
540	35.4128
544	12.3824
548	19.4553
552	-6.99174
556	17.4318
560	-6.06995
564	25.1208
568	-12.2791
572	23.0607
576	38.6805
580	-2.16005
584	8.19716
588	2.20472
592	20.2014
596	-2.18882
600	0.128882
604	22.4844
608	22.8098
612	-6.76411
616	-6.89344
620	2.26863
624	-1.56502
628	26.0279
632	92.5566
636	21.0063
640	15.3175
644	1.55223
648	-0.433344
652	16.8807
656	-1.62068
660	-2.58469
664	-9.59607
668	30.3849
672	7.95545
676	4.72306
680	-4.36525
684	7.7177
688	36.5049
692	25.8108
696	18.6803
700	-3.8485
704	33.7049
708	58.9313
712	69.0196
716	18.7061
720	19.1925
724	7.87393
728	31.6568
732	1.56653
736	11.8127
740	-0.148662
744	-25.8036
748	10.94
752	19.3748
756	20.1924
760	-17.9551
764	23.0957
768	7.40839
772	25.9939
776	15.9051
780	12.7497
784	-3.76632
788	44.93
792	24.3409
796	0.537379
800	16.4825
804	23.5346
808	28.4215
812	5.98786
816	12.3109
820	34.8428
824	-2.53227
828	18.3154
832	-2.34114
836	6.71744
840	61.8678
844	15.9095
848	3.26197
852	2.97418
856	-15.3932
860	25.0001
864	25.8143
868	4.56697
872	24.7901
876	-12.7544
880	32.5117
884	23.5762
888	2.15783
892	-10.1134
896	24.9463
900	23.2962
904	37.0415
908	-0.146918
912	36.1808
916	2.37419
920	12.506
924	6.10495
928	16.8175
932	20.0816
936	47.2877
940	0.280905
944	43.3226
948	7.28932
952	43.4478
956	11.2877
960	21.0899
964	2.2397
968	-2.46282
972	-15.3114
976	-1.23967
980	3.27222
984	13.9719
988	-15.8963
992	11.8039
996	51.8903
1000	107.601
1004	93.2234
1008	13.2818
1012	-1.28898
1016	-1.23994
1020	21.7247
1024	50.0673
1028	2.94818
1032	3.7384
1036	-2.53012
1040	-0.117542
1044	-6.32642
1048	1.62098
1052	-26.8461
1056	-21.5972
1060	-39.3862
1064	-3.37739
1068	145.304
1072	625.25
1076	922.962
1080	822.698
1084	404.554
1088	58.0566
1092	-25.0548
1096	-58.6381
1100	-23.1787
1104	19.1808
1108	-14.6848
1112	5.71113
1116	12.5721
1120	6.6951
1124	18.6237
1128	8.1155
1132	3.64538
1136	43.2081
1140	60.4152
1144	22.8742
1148	25.8061
1152	-17.1675
1156	10.0842
1160	-6.7991
1164	-16.5067
1168	20.8692
1172	4.73039
1176	78.3678
1180	99.4311
1184	72.0197
1188	16.7434
1192	4.40966
1196	-11.0347
1200	-19.7575
1204	-0.883531
1208	30.622
1212	13.1436
1216	17.5439
1220	2.01316
1224	-4.5039
1228	-4.37381
1232	29.8611
1236	23.1744
1240	7.64674
1244	29.2037
1248	36.798
1252	15.0873
1256	29.0124
1260	6.20638
1264	24.0322
1268	21.6993
1272	35.6058
1276	16.1847
1280	2.65822
1284	1.62889
1288	-4.69919
1292	22.5271
1296	-3.99245
1300	24.8069
1304	-7.70833
1308	14.0776
1312	-13.0157
1316	13.8319
1320	14.8934
1324	1.6193
1328	-1.94528
1332	20.5856
1336	11.7409
1340	5.12508
1344	11.2258
1348	20.9164
1352	39.935
1356	-5.34329
1360	-3.12737
1364	29.8416
1368	4.91381
1372	49.2154
1376	16.589
1380	21.8565
1384	1.98166
1388	11.0861
1392	7.58656
1396	-10.2676
1400	22.2743
1404	-9.40259
1408	16.3883
1412	5.91681
1416	-0.0562449
1420	28.692
1424	-8.07749
1428	-3.23454
1432	0.3046
1436	28.7603
1440	-6.53122
1444	-4.59207
1448	9.42032
1452	44.408
1456	9.23523
1460	0.149629
1464	23.4364
1468	41.205
1472	42.2462
1476	6.67343
1480	21.6043
1484	20.456
1488	23.7541
1492	-18.3843
1496	21.8163
1500	18.0291
1504	20.0409
1508	4.40347
1512	-22.5785
1516	20.7056
1520	5.15845
1524	9.74167
1528	11.4105
1532	6.14661
1536	-4.09088
1540	40.8503
1544	-16.5622
1548	4.21727
1552	1.88178
1556	-21.2188
1560	-43.3212
1564	-23.7755
1568	42.0286
1572	243.215
1576	579.382
1580	679.376
1584	442.15
1588	115.417
1592	-35.6462
1596	-19.5314
1600	-16.3811
1604	-13.9
1608	15.9188
1612	26.1557
1616	-8.42723
1620	-1.41828
1624	12.2742
1628	9.83368
1632	0.66245
1636	8.22399
1640	13.4648
1644	-3.32928
1648	-23.845
