Raman shift (cm-1)	intensity
320	-9.50313
324	-7.68146
328	-1.97949
332	18.0798
336	42.8199
340	9.80563
344	15.9274
348	30.1316
352	36.9455
356	7.74679
360	10.6777
364	2.6192
368	23.8579
372	18.1114
376	-22.7223
380	0.210528
384	-3.05247
388	9.07963
392	-6.56861
396	-27.2727
400	6.79938
404	18.2764
408	41.0554
412	35.4096
416	97.0479
420	133.35
424	115.786
428	79.7
432	2.18931
436	9.61252
440	11.8885
444	-11.5147
448	36.202
452	25.6236
456	41.377
460	29.9359
464	-2.29237
468	21.3741
472	-2.24389
476	-18.6449
480	24.4557
484	41.9414
488	-11.849
492	-1.88158
496	-3.18348
500	-7.66126
504	-22.2476
508	91.2681
512	156.432
516	249.798
520	135.785
524	98.8398
528	65.3263
532	8.61531
536	-10.8489
540	-0.601361
544	18.8266
548	27.6187
552	30.4257
556	3.72502
560	-7.16798
564	35.2295
568	-8.31825
572	1.70174
576	18.6475
580	-9.32659
584	16.7205
588	-7.58134
592	16.3907
596	0.116749
600	28.0369
604	8.21277
608	-10.0121
612	0.0492087
616	-6.717
620	31.1938
624	26.5219
628	14.0278
632	39.0724
636	81.695
640	45.8325
644	1.84249
648	-0.189379
652	2.36612
656	22.8238
660	-6.17453
664	-0.813428
668	-4.17669
672	13.1798
676	11.8508
680	1.92619
684	-5.56248
688	24.0479
692	0.218799
696	29.9373
700	51.7217
704	9.19501
708	19.5074
712	97.7568
716	22.129
720	31.4154
724	26.5771
728	47.7797
732	-9.82156
736	32.3931
740	-3.49767
744	13.2204
748	-7.01221
752	16.2961
756	21.5812
760	-16.7551
764	-4.5224
768	38.0285
772	45.6673
776	32.6842
780	6.87721
784	2.42059
788	50.8262
792	45.9878
796	56.9051
800	2.34916
804	12.3905
808	17.0813
812	-0.975597
816	8.13939
820	41.5223
824	-12.2914
828	30.0089
832	-1.78272
836	29.1817
840	58.3163
844	34.5615
848	-6.69922
852	-0.737195
856	14.7143
860	-4.9952
864	24.7125
868	25.7734
872	-2.8814
876	0.775199
880	-7.61041
884	41.754
888	10.8968
892	32.5291
896	20.8318
900	-9.88545
904	13.6319
908	10.0792
912	41.4656
916	10.447
920	10.3744
924	41.436
928	11.2368
932	1.51164
936	23.7162
940	39.3546
944	-9.96933
948	4.14915
952	7.11219
956	19.1545
960	10.7285
964	-7.92775
968	21.904
972	-16.3206
976	26.0149
980	-5.98908
984	8.47297
988	2.74616
992	11.2425
996	30.5363
1000	108.519
1004	132.801
1008	12.278
1012	-3.4725
1016	46.7801
1020	47.0085
1024	58.7701
1028	41.3608
1032	13.0293
1036	7.03793
1040	37.4824
1044	-5.9136
1048	-17.0173
1052	-5.26807
1056	-35.4915
1060	-36.7033
1064	4.41098
1068	206.658
1072	625.146
1076	887.457
1080	768.064
1084	343.626
1088	33.7536
1092	-57.0454
1096	-25.7281
1100	-33.7859
1104	1.22897
1108	-15.3826
1112	16.119
1116	22.4101
1120	7.04474
1124	-14.5429
1128	38.3335
1132	19.55
1136	59.5977
1140	75.1098
1144	54.3607
1148	29.029
1152	1.7022
1156	-7.41716
1160	9.74044
1164	-13.2041
1168	-0.0430637
1172	21.7737
1176	67.9516
1180	96.0993
1184	63.0639
1188	3.71178
1192	3.31315
1196	-24.745
1200	-9.48513
1204	52.4482
1208	18.811
1212	6.75646
1216	10.9544
1220	-2.09013
1224	-13.6067
1228	36.9914
1232	11.7376
1236	31.2047
1240	6.20476
1244	19.6138
1248	27.9661
1252	30.729
1256	36.9216
1260	18.0912
1264	4.82652
1268	24.4753
1272	49.234
1276	1.40462
1280	-1.11178
1284	29.0189
1288	15.0642
1292	-4.03324
1296	27.2168
1300	-3.78765
1304	9.738
1308	-16.8292
1312	9.11174
1316	22.4956
1320	-7.49851
1324	-7.47541
1328	12.6878
1332	13.7332
1336	1.31438
1340	21.8809
1344	2.66315
1348	10.4625
1352	2.6479
1356	42.7119
1360	-11.1052
1364	35.7479
1368	5.52161
1372	2.22665
1376	36.7573
1380	83.4332
1384	17.6709
1388	25.7295
1392	-2.10611
1396	-3.79828
1400	-0.197729
1404	-5.21505
1408	34.217
1412	-5.17653
1416	61.6091
1420	-6.53019
1424	-4.98604
1428	16.1522
1432	25.1402
1436	-2.97221
1440	8.3741
1444	4.06002
1448	43.3894
1452	15.1868
1456	25.7074
1460	16.3243
1464	1.0996
1468	14.4529
1472	48.5717
1476	33.8742
1480	35.4884
1484	53.0956
1488	-6.69561
1492	-12.5784
1496	34.2529
1500	49.3353
1504	9.45599
1508	-7.42009
1512	9.77251
1516	13.3776
1520	-5.67677
1524	-4.81339
1528	0.0839368
1532	12.0641
1536	23.162
1540	12.9425
1544	-17.7035
1548	16.4434
1552	35.9154
1556	-20.4095
1560	-18.4928
1564	-34.8274
1568	22.3086
1572	175.856
1576	521.692
1580	638.821
1584	421.934
1588	93.6598
1592	-28.5994
1596	-34.2475
1600	-3.63127
1604	-8.72431
1608	30.6919
1612	-2.64351
1616	0.303497
1620	13.2175
1624	35.1787
1628	-4.1637
1632	-2.55212
1636	18.5341
1640	7.96982
1644	1.47938
1648	15.0339
