Raman shift (cm-1)	intensity
320	-21.9682
324	-0.176575
328	0.728672
332	3.60683
336	6.26826
340	31.77
344	38.7599
348	143.93
352	130.108
356	97.8566
360	123.95
364	109.392
368	146.444
372	51.3486
376	25.8943
380	26.2054
384	9.68523
388	-15.7596
392	1.18692
396	-11.3063
400	-0.414309
404	101.038
408	179.508
412	321.713
416	385.154
420	437.488
424	479.099
428	385.196
432	241.014
436	126.976
440	34.4295
444	39.6891
448	92.6044
452	86.3715
456	114.157
460	29.4844
464	-17.2518
468	-3.95991
472	-7.22203
476	5.10152
480	-9.23769
484	8.83348
488	15.9317
492	42.3235
496	-2.76601
500	-2.49735
504	61.2485
508	189.63
512	395.46
516	459.454
520	588.593
524	609.909
528	544.074
532	519.544
536	481.562
540	458.216
544	439.368
548	363.24
552	289.123
556	238.56
560	127.53
564	26.2757
568	0.419933
572	-3.05578
576	12.2983
580	-6.82787
584	29.0916
588	11.0438
592	6.77846
596	7.60752
600	-15.3103
604	54.0753
608	19.0356
612	-7.63974
616	30.0262
620	28.2333
624	43.9261
628	2.0596
632	52.0754
636	42.6812
640	-2.16204
644	31.9091
648	21.812
652	10.6193
656	14.1968
660	11.9047
664	9.9233
668	-1.15178
672	20.5313
676	-4.94356
680	36.0293
684	18.6855
688	6.4959
692	22.4965
696	16.5479
700	-4.98584
704	49.2182
708	60.9629
712	83.6804
716	52.1758
720	70.7465
724	19.3401
728	12.8433
732	-2.01257
736	-2.83372
740	-4.48093
744	36.5094
748	31.9912
752	11.8018
756	-2.31565
760	53.1914
764	8.52475
768	59.7452
772	63.7941
776	75.7893
780	50.9626
784	65.3712
788	47.8054
792	51.6654
796	30.9536
800	10.0415
804	33.1301
808	35.517
812	43.3991
816	29.5809
820	18.6342
824	1.07892
828	4.30318
832	4.76633
836	21.3565
840	68.1614
844	77.8849
848	20.8123
852	6.99128
856	26.6663
860	26.3449
864	-0.506045
868	0.0748966
872	47.2551
876	61.2164
880	38.8959
884	80.1833
888	68.9226
892	-15.9151
896	27.8572
900	29.2065
904	20.9504
908	27.4343
912	24.079
916	20.3658
920	40.441
924	10.2786
928	37.8738
932	52.8267
936	36.7967
940	50.8615
944	-11.6944
948	21.8225
952	28.238
956	33.5893
960	48.7092
964	20.9128
968	35.4188
972	10.0546
976	30.5339
980	1.13535
984	7.55866
988	48.3847
992	11.3673
996	54.9573
1000	-1.79501
1004	-10.2262
1008	18.3864
1012	63.5462
1016	59.3391
1020	47.3269
1024	16.7361
1028	-4.45275
1032	5.38175
1036	7.25173
1040	-13.442
1044	9.38679
1048	-8.50653
1052	-22.8624
1056	-7.93664
1060	9.84962
1064	98.2616
1068	358.697
1072	727.068
1076	957.213
1080	946.662
1084	640.498
1088	328.962
1092	96.501
1096	-10.6045
1100	-3.99708
1104	-22.6036
1108	12.4604
1112	2.03652
1116	41.1709
1120	-19.8999
1124	4.97287
1128	4.05492
1132	45.9437
1136	73.6212
1140	108.987
1144	90.9652
1148	32.5339
1152	2.05205
1156	36.2708
1160	1.70929
1164	-10.3933
1168	20.0029
1172	24.8488
1176	65.9179
1180	76.7431
1184	70.8681
1188	23.9789
1192	33.3726
1196	13.1065
1200	-5.26473
1204	26.1476
1208	69.1538
1212	25.7374
1216	12.8005
1220	21.2799
1224	14.7716
1228	-20.4729
1232	3.38881
1236	14.9408
1240	47.6868
1244	102.548
1248	189.175
1252	194.41
1256	213.473
1260	230.97
1264	234.67
1268	210.846
1272	165.995
1276	136.144
1280	92.1789
1284	76.0577
1288	49.6396
1292	11.4842
1296	19.2462
1300	5.37041
1304	30.3204
1308	-14.08
1312	0.341517
1316	4.52635
1320	-1.85749
1324	24.6157
1328	6.83919
1332	7.9413
1336	6.19554
1340	3.64799
1344	-9.99983
1348	1.10709
1352	28.8177
1356	31.6785
1360	36.2136
1364	45.3876
1368	49.2359
1372	100.303
1376	117.086
1380	119.772
1384	149.534
1388	118.779
1392	89.4656
1396	14.4339
1400	1.58916
1404	3.03475
1408	1.5557
1412	12.1415
1416	25.9171
1420	0.92084
1424	28.1166
1428	-0.707339
1432	54.2633
1436	11.7952
1440	2.96546
1444	35.3689
1448	11.7869
1452	13.7128
1456	20.5625
1460	3.44253
1464	22.7278
1468	-0.662335
1472	37.6398
1476	61.0975
1480	76.2333
1484	8.01833
1488	36.831
1492	8.67222
1496	-2.8424
1500	-1.51063
1504	15.2199
1508	7.5005
1512	4.8144
1516	9.39393
1520	10.6828
1524	4.00231
1528	17.7745
1532	22.2559
1536	35.159
1540	7.05868
1544	-9.67011
1548	14.7275
1552	21.309
1556	0.932834
1560	-38.6816
1564	15.7088
1568	152.555
1572	446.327
1576	868.525
1580	1113.18
1584	894.548
1588	426.875
1592	81.948
1596	-13.1675
1600	-26.1952
1604	1.94279
1608	15.4133
1612	13.075
1616	12.7926
1620	19.155
1624	-15.8517
1628	39.6903
1632	56.6957
1636	-1.31114
1640	7.70689
1644	-2.12831
1648	10.0405
