Raman shift (cm-1)	intensity
320	23.7676
324	-15.3389
328	-7.72024
332	4.35776
336	12.0819
340	13.2081
344	13.6673
348	10.3134
352	12.7264
356	5.92037
360	-0.786997
364	13.1924
368	24.4774
372	9.99728
376	32.2761
380	30.0215
384	-8.507
388	2.0477
392	-19.4016
396	-1.38599
400	-18.8783
404	-15.059
408	11.1668
412	116.577
416	231.823
420	376.873
424	414.812
428	368.08
432	226.978
436	115.702
440	5.7223
444	-4.45506
448	67.9793
452	103.367
456	69.1957
460	31.6096
464	-18.347
468	-9.63768
472	-19.4777
476	-18.714
480	-1.00737
484	67.2042
488	63.5154
492	2.03061
496	-2.48865
500	-6.87848
504	-29.3258
508	13.2411
512	107.878
516	211.469
520	194.369
524	180.969
528	68.5934
532	64.5538
536	136.908
540	176.234
544	202.155
548	206.459
552	163.992
556	119.284
560	12.4001
564	-3.16991
568	-2.92755
572	-15.1123
576	-9.80884
580	-13.8669
584	6.00943
588	4.21448
592	-8.0147
596	16.5086
600	15.5218
604	-8.81818
608	-13.3954
612	2.8696
616	-10.4908
620	42.9011
624	36.7707
628	4.20862
632	29.5752
636	3.3798
640	-3.04263
644	20.965
648	4.11203
652	39.3818
656	19.4145
660	4.82273
664	29.8173
668	-6.28557
672	28.2845
676	-6.52503
680	-8.42601
684	42.0475
688	18.7525
692	38.7771
696	-7.61526
700	-4.06084
704	38.9444
708	19.9957
712	59.9929
716	25.5318
720	3.16581
724	7.28122
728	38.4596
732	-21.9297
736	4.88162
740	-5.68441
744	60.589
748	15.3947
752	-21.7986
756	-1.91031
760	-9.82983
764	23.6987
768	50.8016
772	77.7676
776	61.698
780	3.53765
784	34.6247
788	13.2912
792	-1.20717
796	30.4983
800	-1.86659
804	0.157195
808	22.1263
812	52.857
816	26.5419
820	5.07076
824	6.346
828	8.36865
832	-25.4386
836	9.46737
840	20.6826
844	42.3032
848	22.0912
852	-25.9802
856	47.725
860	13.0537
864	-16.1769
868	93.4026
872	96.317
876	10.8606
880	3.23831
884	28.0424
888	50.3982
892	39.739
896	-23.5125
900	0.629365
904	40.1608
908	48.4626
912	5.43786
916	4.14806
920	-6.55319
924	18.7544
928	37.5107
932	1.81304
936	10.6764
940	1.93588
944	-21.5525
948	1.3724
952	10.1679
956	37.762
960	71.8768
964	16.3364
968	15.5429
972	-9.61031
976	1.83252
980	31.436
984	20.2441
988	10.7582
992	64.0446
996	31.3586
1000	-9.98638
1004	49.0201
1008	9.37103
1012	-3.57616
1016	20.9501
1020	7.31265
1024	3.9583
1028	41.8328
1032	47.5192
1036	-4.04961
1040	3.60991
1044	2.95965
1048	49.6704
1052	11.206
1056	-1.59791
1060	-34.2817
1064	-8.52586
1068	17.0388
1072	109.5
1076	218.976
1080	206.332
1084	133.867
1088	6.73935
1092	-4.39042
1096	-6.5324
1100	-15.3214
1104	-5.93428
1108	9.32362
1112	54.3643
1116	21.7773
1120	-3.53384
1124	11.2493
1128	58.9541
1132	15.9441
1136	3.58874
1140	42.8877
1144	6.28391
1148	27.3774
1152	38.4325
1156	-8.13924
1160	24.7305
1164	15.2109
1168	9.13985
1172	16.4251
1176	3.83152
1180	-0.326923
1184	39.1917
1188	-7.37899
1192	45.9951
1196	0.731301
1200	-6.21595
1204	26.5979
1208	49.3669
1212	55.087
1216	37.3283
1220	0.85388
1224	-9.77627
1228	-27.37
1232	7.01972
1236	16.917
1240	-16.373
1244	66.709
1248	57.468
1252	35.9593
1256	117.609
1260	47.9136
1264	82.7941
1268	47.6292
1272	13.8278
1276	46.7046
1280	10.0117
1284	6.04441
1288	37.2227
1292	-3.70554
1296	-6.7059
1300	-2.75969
1304	14.0108
1308	-3.54237
1312	-13.9076
1316	-8.8051
1320	-0.238038
1324	7.54353
1328	49.5037
1332	11.3876
1336	8.36524
1340	-3.20013
1344	-15.7385
1348	5.16824
1352	40.6587
1356	22.9005
1360	0.965046
1364	-3.36706
1368	25.5393
1372	8.40427
1376	22.6717
1380	14.3978
1384	-5.78981
1388	3.9726
1392	12.2945
1396	-5.63228
1400	22.2384
1404	30.7072
1408	25.4034
1412	10.6286
1416	7.52455
1420	11.7783
1424	0.0627495
1428	17.9952
1432	12.8206
1436	-7.0525
1440	17.7153
1444	19.1527
1448	7.85769
1452	5.36461
1456	20.7385
1460	5.54228
1464	20.5589
1468	-15.0169
1472	49.5189
1476	35.5518
1480	39.7355
1484	14.1154
1488	39.5617
1492	-5.32082
1496	3.4603
1500	16.4044
1504	11.3671
1508	4.8195
1512	-12.3045
1516	19.9752
1520	3.58543
1524	33.1884
1528	10.5118
1532	-10.7206
1536	25.2374
1540	-1.25844
1544	29.4254
1548	-1.24482
1552	14.507
1556	6.17612
1560	22.306
1564	2.27904
1568	-1.32429
1572	-4.40152
1576	61.3078
1580	101.436
1584	166.58
1588	139.21
1592	-13.7367
1596	20.53
1600	-10.0377
1604	2.86466
1608	7.17178
1612	23.3381
1616	-3.82468
1620	8.84009
1624	7.02357
1628	22.6783
1632	8.70734
1636	36.2361
1640	0.743271
1644	-5.20651
1648	-7.21702
