Raman shift (cm-1)	intensity
320	6.55433
324	-11.5289
328	10.4051
332	2.59242
336	8.21811
340	26.5453
344	-10.9589
348	21.2555
352	0.237676
356	6.53451
360	24.2037
364	24.5072
368	23.8235
372	20.9213
376	10.0752
380	20.205
384	26.0634
388	-40.1771
392	3.29754
396	-21.401
400	-10.6948
404	-11.3199
408	0.0472043
412	58.85
416	213.858
420	346.258
424	409.129
428	276.578
432	100.901
436	6.94165
440	5.0871
444	-12.2263
448	43.0893
452	102.863
456	75.0005
460	38.9027
464	-4.7076
468	-7.53532
472	-29.9517
476	-21.5986
480	-3.12914
484	43.8498
488	97.2558
492	75.9032
496	-17.7871
500	-17.6106
504	-8.95966
508	12.0612
512	51.8178
516	184.255
520	254.074
524	216.66
528	154.234
532	102.888
536	27.4123
540	75.7631
544	134.665
548	120.875
552	78.3855
556	10.4842
560	28.1643
564	34.6156
568	12.9302
572	-14.974
576	-5.90261
580	-15.5927
584	2.37482
588	26.9673
592	-1.61609
596	9.34335
600	13.2254
604	-14.175
608	-1.30422
612	13.2178
616	-16.5699
620	47.7526
624	43.997
628	4.90958
632	17.1939
636	-6.14658
640	2.32352
644	23.3
648	12.7777
652	29.8125
656	65.5004
660	-2.41133
664	11.469
668	-9.96387
672	23.4187
676	19.6725
680	-5.96101
684	55.9301
688	77.195
692	61.2678
696	46.348
700	-1.50847
704	1.51681
708	-2.18125
712	35.5462
716	20.3539
720	-3.97752
724	3.57597
728	1.83252
732	-7.13199
736	3.23569
740	19.6705
744	35.1366
748	6.41804
752	-20.0248
756	-17.8116
760	-1.59542
764	74.7583
768	42.5471
772	28.9569
776	46.9773
780	12.0509
784	-0.538618
788	56.4803
792	32.0385
796	3.25515
800	14.9221
804	22.5474
808	-3.66236
812	12.4345
816	29.3868
820	7.29878
824	41.5583
828	10.2516
832	-35.4014
836	21.0045
840	65.2692
844	40.8247
848	-5.30336
852	3.59736
856	19.2074
860	21.4892
864	-17.4931
868	79.2704
872	127.328
876	67.2454
880	5.80752
884	-16.5249
888	30.1163
892	10.1453
896	0.0306345
900	40.5369
904	7.18686
908	5.138
912	2.82052
916	15.1778
920	21.1783
924	38.333
928	39.4474
932	47.6168
936	-12.6128
940	13.8302
944	10.777
948	-9.81637
952	22.2901
956	28.4149
960	35.626
964	10.4984
968	16.6756
972	-2.41278
976	30.553
980	-13.0402
984	-11.6168
988	60.3036
992	15.0268
996	105.013
1000	50.5259
1004	-16.7243
1008	-4.60456
1012	30.2945
1016	-8.5997
1020	17.7508
1024	37.1699
1028	15.9193
1032	57.8697
1036	-1.55082
1040	-8.55553
1044	-14.0464
1048	57.3974
1052	-6.3224
1056	6.66222
1060	-4.14305
1064	-24.156
1068	23.9765
1072	106.54
1076	187.333
1080	118.354
1084	83.1882
1088	30.8099
1092	2.51214
1096	-16.5405
1100	-11.1181
1104	-11.3633
1108	37.9397
1112	20.3971
1116	-0.954572
1120	10.1461
1124	-12.5948
1128	20.9542
1132	30.741
1136	40.1225
1140	36.5532
1144	51.7515
1148	5.75125
1152	-23.5474
1156	17.9064
1160	40.2003
1164	-12.9878
1168	38.9405
1172	19.4795
1176	-9.88897
1180	0.92503
1184	39.1212
1188	-20.7232
1192	22.5355
1196	-5.83923
1200	51.6999
1204	70.5205
1208	76.1233
1212	12.9897
1216	17.3293
1220	-8.43282
1224	11.448
1228	-8.00491
1232	-14.0578
1236	8.95856
1240	8.78362
1244	-3.95922
1248	41.3717
1252	113.687
1256	30.0193
1260	107.855
1264	131.284
1268	65.0168
1272	66.1857
1276	-9.05464
1280	9.54721
1284	14.5458
1288	4.74936
1292	6.26015
1296	22.1646
1300	-15.5979
1304	12.032
1308	7.11488
1312	-14.9329
1316	3.50226
1320	34.2633
1324	31.8439
1328	25.5266
1332	8.16274
1336	14.613
1340	5.96854
1344	-4.31267
1348	-5.83004
1352	20.8158
1356	33.0499
1360	38.4132
1364	-3.14642
1368	12.0423
1372	2.65081
1376	7.66246
1380	28.176
1384	2.63377
1388	19.6198
1392	4.04423
1396	-1.88484
1400	27.7791
1404	36.1512
1408	24.2489
1412	-2.3908
1416	21.4358
1420	-6.18285
1424	5.3525
1428	14.1234
1432	31.9985
1436	43.1707
1440	18.3556
1444	49.7704
1448	-13.5968
1452	10.3788
1456	0.863832
1460	25.3573
1464	3.3788
1468	-3.61046
1472	23.4519
1476	57.0422
1480	23.0232
1484	-6.76846
1488	13.4904
1492	25.9374
1496	-6.31952
1500	36.8596
1504	-0.349215
1508	4.70131
1512	1.37679
1516	21.7173
1520	-6.41593
1524	2.95239
1528	2.43073
1532	34.696
1536	-3.63746
1540	-8.34865
1544	3.92708
1548	0.479378
1552	69.8559
1556	0.209344
1560	-6.72604
1564	-9.60255
1568	5.45073
1572	1.961
1576	69.0569
1580	65.4931
1584	127.379
1588	32.5538
1592	11.3422
1596	-9.46836
1600	5.73398
1604	8.95599
1608	9.92428
1612	17.2844
1616	2.73104
1620	18.2599
1624	4.4561
1628	22.5036
1632	-12.7895
1636	13.7867
1640	2.96951
1644	17.6142
1648	9.84962
