Raman shift (cm-1)	intensity
320	-65.8762
324	-24.7584
328	1.1087
332	2.27458
336	23.4318
340	-7.64056
344	28.1229
348	-6.62598
352	16.4983
356	29.2367
360	-19.4234
364	-10.1652
368	-16.1565
372	-20.4136
376	33.1243
380	-22.8442
384	-7.26027
388	-17.6206
392	-61.7146
396	-37.3377
400	-12.7737
404	-26.971
408	-25.0644
412	-22.341
416	48.8153
420	66.6396
424	84.267
428	71.1062
432	21.9677
436	-49.0755
440	-40.3079
444	-27.4575
448	19.073
452	18.7546
456	36.4775
460	-25.3683
464	-20.4198
468	-23.3453
472	-14.5205
476	-13.9745
480	-30.4734
484	18.3243
488	44.3937
492	-13.6056
496	-51.2669
500	-23.134
504	-54.7665
508	-13.5735
512	8.47834
516	95.5852
520	70.988
524	11.692
528	35.5274
532	-7.52044
536	4.40116
540	-21.6521
544	19.0139
548	15.1781
552	22.2419
556	26.8765
560	-54.9254
564	-34.702
568	-6.49048
572	-12.1477
576	-9.85665
580	-18.109
584	13.1198
588	-8.93481
592	0.364727
596	-7.96681
600	-2.01923
604	18.7224
608	-10.066
612	4.62544
616	-20.7228
620	14.7244
624	36.6137
628	-9.56655
632	6.70669
636	17.3445
640	-3.28903
644	2.50753
648	17.6204
652	-4.48458
656	-13.8173
660	0.211413
664	4.3454
668	-0.77932
672	19.6997
676	-38.6451
680	-7.44618
684	-14.7526
688	25.506
692	-10.8128
696	1.42649
700	5.08379
704	12.2743
708	-36.8393
712	43.4564
716	-8.79668
720	-3.26287
724	15.7933
728	28.5191
732	-29.922
736	-18.8749
740	-39.6294
744	-22.7224
748	0.60051
752	-5.68982
756	5.04614
760	-33.0099
764	-11.9836
768	19.612
772	3.79579
776	13.5378
780	36.087
784	-25.5276
788	18.2531
792	20.06
796	17.333
800	1.68924
804	6.08639
808	17.949
812	5.01352
816	8.12002
820	33.6315
824	-35.6935
828	0.810579
832	-1.26756
836	-42.476
840	33.1579
844	8.4796
848	-5.33429
852	-23.5643
856	-36.6318
860	33.3261
864	-16.8021
868	18.2732
872	-34.2259
876	-31.1467
880	24.2365
884	28.6252
888	10.9827
892	-0.963983
896	2.16944
900	-19.3247
904	40.4902
908	16.0625
912	-14.2281
916	31.5928
920	-38.1055
924	40.7827
928	4.32476
932	-13.0425
936	1.22566
940	-1.83388
944	17.3532
948	0.0679408
952	17.6107
956	-14.5332
960	46.9926
964	-53.5186
968	7.05515
972	-26.9558
976	-5.32067
980	13.732
984	5.25253
988	11.2917
992	-1.32774
996	-9.63915
1000	-20.8958
1004	41.0107
1008	-19.3888
1012	-4.69978
1016	19.8587
1020	20.8926
1024	-15.857
1028	-18.3813
1032	-17.0991
1036	14.1819
1040	-1.9296
1044	-10.2021
1048	-17.1372
1052	-11.8028
1056	-61.8365
1060	-58.1047
1064	-51.4201
1068	-101.445
1072	91.6456
1076	235.567
1080	207.153
1084	64.0822
1088	-35.8272
1092	-121.808
1096	-54.1354
1100	-62.2719
1104	-23.0124
1108	-15.4718
1112	8.01797
1116	-22.7994
1120	-11.6913
1124	-12.0254
1128	-5.04382
1132	3.16212
1136	14.0846
1140	11.9094
1144	27.359
1148	-21.8952
1152	2.08752
1156	-25.3152
1160	30.8454
1164	-22.4581
1168	-36.245
1172	11.842
1176	-30.4608
1180	31.5212
1184	17.8868
1188	11.1402
1192	-36.0762
1196	-27.9418
1200	10.1557
1204	24.3553
1208	29.2573
1212	-27.5244
1216	6.52138
1220	12.1559
1224	-7.76329
1228	-22.4582
1232	23.6319
1236	-10.3369
1240	-23.667
1244	-24.6568
1248	31.489
1252	9.3148
1256	25.7085
1260	16.2675
1264	11.1236
1268	32.6685
1272	29.7022
1276	-73.619
1280	37.649
1284	-9.12309
1288	4.97982
1292	-24.6035
1296	-2.48014
1300	-21.3391
1304	22.3538
1308	-6.80589
1312	-22.9294
1316	-19.1751
1320	12.0384
1324	-2.57386
1328	-11.2395
1332	19.6932
1336	0.80587
1340	-31.1455
1344	16.9374
1348	-20.2007
1352	13.4561
1356	12.33
1360	-8.03277
1364	14.1719
1368	-17.5189
1372	4.80038
1376	5.53827
1380	14.5108
1384	9.68979
1388	3.7772
1392	5.97788
1396	-18.8367
1400	-4.89814
1404	-26.4791
1408	30.1675
1412	-15.5627
1416	-23.9674
1420	8.58933
1424	14.6925
1428	0.377989
1432	-4.41798
1436	-16.2896
1440	-9.50205
1444	22.8896
1448	-11.8889
1452	-3.34359
1456	-9.4039
1460	15.7171
1464	-13.776
1468	-5.12922
1472	19.1313
1476	0.901257
1480	13.7889
1484	41.2329
1488	-17.5784
1492	-19.869
1496	-16.9364
1500	18.7064
1504	-9.65029
1508	-15.4721
1512	7.39863
1516	24.1898
1520	-15.5399
1524	-1.33479
1528	-10.7752
1532	-7.71147
1536	6.74595
1540	-17.289
1544	-19.6072
1548	-8.58602
1552	40.5055
1556	-33.4978
1560	-42.0408
1564	-55.538
1568	-80.6155
1572	-69.0285
1576	63.0909
1580	212.808
1584	279.948
1588	17.3653
1592	-101.842
1596	-117.683
1600	-17.5496
1604	-31.2608
1608	3.69212
1612	-34.6859
1616	34.048
1620	-18.453
1624	23.1555
1628	3.28471
1632	2.28751
1636	-17.9645
1640	2.16157
1644	-7.57187
1648	-28.89
