Raman shift (cm-1)	intensity
320	11.0242
324	-2.45873
328	-1.06424
332	6.4151
336	29.5812
340	43.1864
344	37.3493
348	26.5574
352	1.03382
356	52.8466
360	18.068
364	-14.8385
368	33.6755
372	14.1484
376	24.9814
380	-1.54289
384	0.714339
388	-1.22389
392	-16.308
396	13.4163
400	-28.1282
404	30.4493
408	3.51039
412	26.6304
416	113.147
420	171.661
424	178.93
428	156.464
432	24.217
436	12.4625
440	2.69077
444	-0.231725
448	-5.92386
452	12.3585
456	80.6163
460	31.6265
464	-2.84087
468	-12.5133
472	-6.41417
476	-1.00819
480	16.5274
484	6.33372
488	41.8129
492	28.1632
496	8.2372
500	-2.88335
504	-20.1915
508	47.5947
512	44.7113
516	122.05
520	150.163
524	132.069
528	64.2016
532	28.3469
536	4.99838
540	7.11962
544	6.06355
548	26.3136
552	24.16
556	49.7205
560	-8.36217
564	4.61886
568	-6.43726
572	20.62
576	-2.52555
580	-8.22054
584	6.11017
588	-5.6807
592	0.764306
596	20.8493
600	23.9554
604	2.49198
608	-0.578974
612	9.85957
616	4.37151
620	-7.71238
624	6.54306
628	-11.9528
632	63.4448
636	16.0555
640	1.10152
644	34.6624
648	-7.42221
652	12.6286
656	-6.85401
660	14.4411
664	26.4958
668	17.0249
672	9.57146
676	4.59489
680	25.7239
684	-23.4791
688	-1.19596
692	36.4209
696	14.2804
700	9.70404
704	31.9607
708	10.9889
712	54.0885
716	-29.9614
720	16.0155
724	-11.4718
728	34.9371
732	36.8783
736	9.16927
740	-6.15225
744	-18.4283
748	30.7527
752	-4.87127
756	4.60871
760	44.3804
764	18.3663
768	22.7052
772	21.0045
776	-10.8556
780	32.2226
784	12.7289
788	19.4689
792	18.0115
796	54.5449
800	-4.24788
804	25.1839
808	3.24342
812	43.9158
816	6.09249
820	-5.48206
824	38.0113
828	7.08337
832	-7.99784
836	33.7638
840	5.87296
844	4.50602
848	39.4249
852	29.9239
856	27.4125
860	-12.5729
864	45.1952
868	47.308
872	-14.9218
876	19.3383
880	22.3945
884	8.67865
888	30.8591
892	-1.42466
896	10.674
900	18.979
904	-3.15696
908	33.7063
912	36.959
916	13.72
920	14.0972
924	45.3042
928	5.90413
932	48.2062
936	2.34297
940	20.7168
944	13.2162
948	2.72475
952	38.9436
956	0.95222
960	11.216
964	9.21564
968	36.7505
972	-23.0664
976	20.9288
980	-8.94107
984	15.3857
988	29.7766
992	24.1847
996	25.5959
1000	19.3956
1004	29.8292
1008	4.71312
1012	25.1427
1016	7.59281
1020	35.6515
1024	-0.971947
1028	15.9565
1032	4.9009
1036	14.5502
1040	0.843436
1044	-10.9376
1048	51.152
1052	-6.582
1056	-10.1269
1060	-27.2477
1064	-0.710788
1068	18.2078
1072	238.558
1076	387.808
1080	430.067
1084	229.136
1088	13.9758
1092	-29.6178
1096	24.3918
1100	-23.7192
1104	-4.7368
1108	18.137
1112	-3.42211
1116	-15.8223
1120	69.8249
1124	3.27219
1128	31.9885
1132	-0.590864
1136	22.1782
1140	10.7217
1144	27.4535
1148	21.0962
1152	-4.16482
1156	2.70081
1160	44.074
1164	-8.64603
1168	1.73383
1172	31.0458
1176	4.27121
1180	34.3999
1184	7.88683
1188	10.3514
1192	-14.7261
1196	-2.28927
1200	36.319
1204	1.14356
1208	38.2889
1212	2.18922
1216	19.1398
1220	7.30973
1224	12.3519
1228	16.3086
1232	-20.1956
1236	-1.92533
1240	8.16147
1244	29.6858
1248	43.7357
1252	26.9745
1256	31.4852
1260	53.3622
1264	20.2488
1268	49.0327
1272	48.4793
1276	-11.595
1280	8.27935
1284	60.5389
1288	-7.95726
1292	8.34585
1296	34.905
1300	15.3021
1304	1.9442
1308	-10.5474
1312	40.5954
1316	-20.0141
1320	42.1251
1324	13.7617
1328	25.5361
1332	32.7039
1336	1.31502
1340	3.28388
1344	9.0326
1348	1.96292
1352	7.58439
1356	6.6355
1360	11.1164
1364	22.0121
1368	-8.56975
1372	13.4737
1376	20.5371
1380	14.3551
1384	5.1384
1388	25.987
1392	4.78547
1396	2.31742
1400	-11.0522
1404	50.1234
1408	24.6745
1412	11.4046
1416	23.2321
1420	-20.4339
1424	22.9577
1428	7.78299
1432	-5.74971
1436	-6.43604
1440	18.1289
1444	36.9751
1448	-17.6051
1452	11.9965
1456	80.1106
1460	15.8518
1464	-17.5106
1468	25.5953
1472	1.88739
1476	54.2871
1480	27.3594
1484	-4.35624
1488	1.8793
1492	42.6198
1496	-8.64102
1500	31.3991
1504	40.2261
1508	-21.0892
1512	-1.88867
1516	43.9783
1520	13.0523
1524	28.6507
1528	23.6195
1532	-11.832
1536	16.5708
1540	19.0861
1544	-1.55087
1548	-4.83041
1552	27.1692
1556	6.52694
1560	-3.93161
1564	-26.228
1568	1.67654
1572	4.13789
1576	190.65
1580	295.838
1584	324.84
1588	97.9097
1592	-5.8559
1596	-27.2693
1600	31.25
1604	-0.673155
1608	22.9277
1612	-8.12937
1616	-0.862692
1620	13.0475
1624	23.0703
1628	15.7903
1632	12.9859
1636	8.9334
1640	-10.4217
1644	0.0516818
1648	7.2187
