Raman shift (cm-1)	intensity
320	-17.2824
324	0.818185
328	6.21482
332	5.02198
336	65.5826
340	30.4098
344	-2.35404
348	13.0847
352	38.8172
356	10.4096
360	3.65163
364	14.9494
368	26.5173
372	-15.6185
376	12.8461
380	-5.56466
384	-3.62693
388	1.11468
392	-7.34728
396	-9.17547
400	-6.83534
404	6.10157
408	17.7999
412	58.1909
416	107.256
420	147.001
424	151.993
428	126.449
432	26.8071
436	1.92194
440	-4.56298
444	-6.39907
448	15.9347
452	20.2568
456	34.7416
460	30.0605
464	2.2929
468	-11.0032
472	-7.6375
476	14.1045
480	-12.8365
484	60.7217
488	15.607
492	21.3989
496	-15.8834
500	-15.4865
504	26.6086
508	21.3929
512	27.8607
516	112.705
520	152.203
524	124.38
528	31.4624
532	-7.58508
536	-1.17734
540	7.4791
544	13.295
548	4.54213
552	34.7913
556	21.7315
560	12.0503
564	5.32431
568	-6.85042
572	4.41625
576	-6.76533
580	8.19883
584	1.92868
588	26.0557
592	23.0323
596	-0.86808
600	11.8196
604	30.3402
608	-12.6687
612	20.267
616	16.3652
620	-13.7963
624	11.1015
628	-4.96203
632	28.6292
636	11.6561
640	-9.90748
644	30.2806
648	10.6085
652	12.3316
656	-2.71749
660	9.03871
664	34.373
668	33.8943
672	-6.79817
676	-5.88757
680	23.7153
684	-6.50664
688	22.7945
692	40.2036
696	5.68731
700	48.1181
704	27.6859
708	7.49698
712	46.5315
716	7.45294
720	-0.506779
724	13.9718
728	18.381
732	-6.74847
736	-6.70144
740	26.941
744	4.52712
748	-12.078
752	2.11979
756	3.56897
760	3.23153
764	12.3349
768	44.8518
772	50.4425
776	28.4402
780	-2.59695
784	31.3421
788	26.1658
792	0.924968
796	7.11616
800	26.4055
804	32.1315
808	0.391508
812	29.1687
816	8.292
820	20.6345
824	41.816
828	20.3465
832	-8.22958
836	6.88647
840	7.64862
844	31.8422
848	4.34694
852	28.1057
856	-6.44656
860	1.53972
864	21.1648
868	0.755754
872	0.183441
876	-6.58158
880	20.4428
884	-0.773685
888	18.6095
892	-7.86597
896	3.28444
900	30.0524
904	-1.37693
908	25.3092
912	-4.11134
916	27.58
920	38.5154
924	0.45809
928	18.5513
932	0.522647
936	33.601
940	39.2685
944	3.82558
948	27.4068
952	31.9729
956	-4.64612
960	17.2166
964	13.5135
968	-13.3064
972	30.1171
976	8.38164
980	-1.49785
984	25
988	-10.1722
992	37.5713
996	20.0013
1000	10.5306
1004	0.0851854
1008	6.71355
1012	27.856
1016	38.9465
1020	49.8386
1024	2.99873
1028	14.8097
1032	6.46475
1036	12.628
1040	17.4755
1044	10.6452
1048	3.57985
1052	-9.01241
1056	14.0741
1060	-51.7831
1064	-9.91259
1068	17.5782
1072	218.972
1076	418.728
1080	470.219
1084	237.909
1088	17.809
1092	-9.19758
1096	0.0373387
1100	-19.1691
1104	15.0372
1108	-5.21915
1112	-5.23029
1116	11.3417
1120	-3.65577
1124	17.1687
1128	5.98101
1132	4.86796
1136	12.9749
1140	66.3264
1144	55.7258
1148	-24.1979
1152	45.6746
1156	-0.0512067
1160	1.48268
1164	24.9309
1168	7.57722
1172	-1.80267
1176	-0.820796
1180	55.7468
1184	10.9597
1188	-10.2335
1192	29.2561
1196	-9.18336
1200	4.16324
1204	21.9503
1208	34.0162
1212	0.250568
1216	-8.86267
1220	45.1887
1224	-9.24016
1228	18.3838
1232	3.46423
1236	17.7619
1240	12.1623
1244	30.1865
1248	38.2897
1252	55.3807
1256	16.1353
1260	55.1571
1264	40.9683
1268	13.4928
1272	-0.497328
1276	14.0259
1280	10.8081
1284	30.1029
1288	-2.90982
1292	43.9587
1296	26.4513
1300	-16.2654
1304	32.1636
1308	-5.1742
1312	-1.74808
1316	-2.04021
1320	42.6356
1324	0.669647
1328	-7.45714
1332	25.0451
1336	16.2785
1340	11.3362
1344	-8.98329
1348	5.2588
1352	37.77
1356	19.257
1360	10.4216
1364	12.3116
1368	6.60226
1372	15.5985
1376	12.1907
1380	15.054
1384	-3.13584
1388	11.3688
1392	6.28775
1396	8.64365
1400	23.5249
1404	32.3073
1408	8.05684
1412	-1.58782
1416	55.2192
1420	-6.54191
1424	12.6584
1428	33.6654
1432	3.92223
1436	19.7899
1440	-1.47373
1444	-11.2793
1448	27.6078
1452	12.1699
1456	8.09856
1460	4.68271
1464	13.1498
1468	31.5665
1472	6.75743
1476	-12.0915
1480	58.9619
1484	16.9491
1488	29.0829
1492	-0.560308
1496	21.1372
1500	-9.98569
1504	22.3626
1508	16.8921
1512	4.59679
1516	-9.32465
1520	11.2285
1524	-0.0922571
1528	40.2633
1532	-2.60985
1536	23.9309
1540	-15.0948
1544	25.2479
1548	13.5495
1552	16.1057
1556	-5.81261
1560	-24.4813
1564	-10.5858
1568	17.3205
1572	21.8796
1576	94.7013
1580	305.058
1584	362.3
1588	175.72
1592	8.53013
1596	-37.5979
1600	-18.502
1604	-6.42555
1608	27.7999
1612	26.3089
1616	24.6794
1620	-24.361
1624	16.54
1628	24.7794
1632	17.9413
1636	34.5892
1640	4.60304
1644	49.0153
1648	-16.9081
