Raman shift (cm-1)	intensity
320	-20.6546
324	29.1599
328	11.5252
332	20.0004
336	-7.59268
340	38.3672
344	53.3971
348	39.6212
352	16.3264
356	25.9368
360	-5.61103
364	36.5049
368	-13.6523
372	12.5904
376	53.1775
380	6.42725
384	14.6274
388	-8.42169
392	0.691001
396	-19.1523
400	1.10279
404	-12.4482
408	58.5231
412	118.97
416	213.231
420	181.429
424	193.653
428	194.089
432	105.869
436	-1.22731
440	4.56522
444	-16.9524
448	5.58975
452	28.566
456	25.5632
460	25.4832
464	-0.766298
468	-9.73177
472	9.63958
476	-14.604
480	0.842587
484	-1.13441
488	-3.74061
492	16.7254
496	9.4836
500	-14.4029
504	-11.0178
508	1.27892
512	52.6632
516	172.567
520	170.734
524	123.117
528	41.238
532	14.8127
536	-4.65898
540	21.1621
544	32.6278
548	33.2783
552	2.56725
556	10.7812
560	28.026
564	-7.11247
568	7.61392
572	4.23538
576	4.96346
580	38.3727
584	6.8017
588	-17.2657
592	29.1467
596	23.838
600	41.0667
604	-5.81282
608	17.1566
612	-14.893
616	-9.44173
620	42.7484
624	4.73431
628	-5.84188
632	28.9308
636	15.4222
640	16.6181
644	-4.02242
648	19.9851
652	2.94338
656	23.752
660	14.853
664	-5.45029
668	29.4263
672	38.7361
676	-9.61167
680	-5.23712
684	7.72331
688	35.6984
692	1.10047
696	35.5246
700	4.14751
704	0.115037
708	19.8794
712	39.9787
716	-3.4144
720	6.57709
724	5.55894
728	18.8161
732	-0.044755
736	-2.28014
740	2.72716
744	23.6862
748	20.4278
752	27.6281
756	7.36848
760	8.35645
764	-4.75599
768	15.1165
772	2.39798
776	10.342
780	2.0467
784	21.2219
788	6.55091
792	32.8492
796	6.98594
800	45.118
804	12.1385
808	4.70256
812	17.2797
816	7.89749
820	16.4344
824	6.91121
828	-14.8663
832	5.79756
836	21.8108
840	1.53028
844	56.6127
848	0.0196269
852	-6.02479
856	18.0468
860	8.806
864	17.2637
868	-17.629
872	-5.19269
876	7.57139
880	20.7821
884	16.9939
888	18.6629
892	18.7875
896	4.33379
900	3.73735
904	-2.56902
908	6.68587
912	57.8175
916	45.8315
920	-12.4339
924	58.7252
928	41.654
932	62.0052
936	0.032112
940	-6.00477
944	64.0882
948	4.30198
952	27.9323
956	-0.388718
960	10.6728
964	-3.64357
968	28.6181
972	0.899133
976	-16.3998
980	6.39325
984	38.3227
988	21.2349
992	46.5846
996	-4.79323
1000	28.6739
1004	22.5454
1008	2.10025
1012	22.4164
1016	8.86703
1020	39.8649
1024	29.8804
1028	2.01114
1032	-3.11982
1036	1.49758
1040	-7.23501
1044	13.771
1048	32.6691
1052	-14.0126
1056	-13.4864
1060	-38.5892
1064	-10.4357
1068	50.4946
1072	289.821
1076	436.339
1080	432.331
1084	244.724
1088	24.0108
1092	-3.26116
1096	-21.4608
1100	-16.7308
1104	25.2537
1108	16.9465
1112	-12.6623
1116	-4.02639
1120	17.6684
1124	24.6155
1128	1.12467
1132	6.29292
1136	34.0387
1140	21.6967
1144	35.7619
1148	40.4068
1152	-11.961
1156	18.714
1160	14.4549
1164	10.875
1168	3.69118
1172	31.4279
1176	-5.45015
1180	48.6006
1184	0.174839
1188	12.7388
1192	-6.40569
1196	16.1762
1200	-3.5608
1204	45.162
1208	55.5688
1212	46.1278
1216	1.26631
1220	-6.631
1224	40.5627
1228	-6.90156
1232	-31.4761
1236	0.993644
1240	2.93594
1244	2.64178
1248	44.6027
1252	56.7563
1256	37.7991
1260	59.7844
1264	57.4327
1268	49.9996
1272	54.557
1276	7.11819
1280	39.4443
1284	-13.951
1288	6.56687
1292	-0.115978
1296	9.03043
1300	4.25176
1304	-2.89918
1308	0.458
1312	8.33804
1316	11.0171
1320	16.7719
1324	-0.867342
1328	6.64557
1332	-3.23868
1336	8.57922
1340	14.1918
1344	5.07416
1348	32.1227
1352	8.8611
1356	20.8367
1360	6.44283
1364	28.8821
1368	22.2727
1372	-11.1046
1376	17.5076
1380	-5.12813
1384	35.4775
1388	60.1877
1392	-9.4356
1396	25.5258
1400	38.6868
1404	39.0612
1408	13.1109
1412	25.3321
1416	11.3663
1420	-9.33134
1424	9.53146
1428	19.423
1432	-6.32017
1436	25.0332
1440	31.9114
1444	-1.33805
1448	5.34596
1452	8.73364
1456	19.6889
1460	-11.1166
1464	12.1462
1468	10.689
1472	25.8106
1476	24.823
1480	-0.149583
1484	0.763428
1488	14.232
1492	62.8692
1496	11.653
1500	2.69226
1504	6.36315
1508	17.0471
1512	-2.2136
1516	-0.337013
1520	23.7231
1524	5.36914
1528	24.598
1532	15.7153
1536	18.9238
1540	-10.3405
1544	14.152
1548	-12.9006
1552	20.3614
1556	15.2803
1560	-41.7245
1564	-11.8305
1568	26.4328
1572	14.0865
1576	177.303
1580	365.66
1584	423.945
1588	238.707
1592	9.69946
1596	-7.82791
1600	7.35324
1604	-6.47405
1608	-7.36394
1612	-8.56276
1616	35.4709
1620	4.71642
1624	19.269
1628	10.1635
1632	39.9569
1636	14.1116
1640	15.0747
1644	33.4627
1648	9.57533
